                                  MODFLOW-2000
      U.S. GEOLOGICAL SURVEY MODULAR FINITE-DIFFERENCE GROUND-WATER FLOW MODEL
                           VERSION 1.19.01 03/25/2010


 This model run produced both GLOBAL and LIST files.  This is the LIST file.

 
 #GMS MODFLOW Simulation                                                         
 #18 October 2013                                                                
 THE FREE FORMAT OPTION HAS BEEN SELECTED
    1 LAYERS       120 ROWS        80 COLUMNS
    1 STRESS PERIOD(S) IN SIMULATION

 BAS6 -- BASIC PACKAGE, VERSION 6, 1/11/2000 INPUT READ FROM UNIT  703
          5 ELEMENTS IN IR ARRAY ARE USED BY BAS

 WEL6 -- WELL PACKAGE, VERSION 6, 1/11/2000 INPUT READ FROM UNIT  709
 #GMS_HDF5_01
 No named parameters
 MAXIMUM OF     10 ACTIVE WELLS AT ONE TIME
 CELL-BY-CELL FLOWS WILL BE SAVED ON UNIT  740
 AUXILIARY WELL VARIABLE: IFACE           
 AUXILIARY WELL VARIABLE: QFACT           
 AUXILIARY WELL VARIABLE: CELLGRP         
         70 ELEMENTS IN RX ARRAY ARE USED BY WEL

 DRN6 -- DRAIN PACKAGE, VERSION 6, 1/11/2000 INPUT READ FROM UNIT  710
 #GMS_HDF5_01
 No named parameters
 MAXIMUM OF    870 ACTIVE DRAINS AT ONE TIME
 CELL-BY-CELL FLOWS WILL BE SAVED ON UNIT  740
 AUXILIARY DRAIN VARIABLE: IFACE           
 AUXILIARY DRAIN VARIABLE: CONDFACT        
 AUXILIARY DRAIN VARIABLE: CELLGRP         
       6960 ELEMENTS IN RX ARRAY ARE USED BY DRN

 RIV6 -- RIVER PACKAGE, VERSION 6, 1/11/2000 INPUT READ FROM UNIT  708
 #GMS_HDF5_01
 No named parameters
 MAXIMUM OF    389 ACTIVE RIVER REACHES AT ONE TIME
 CELL-BY-CELL FLOWS WILL BE SAVED ON UNIT  740
 AUXILIARY RIVER VARIABLE: IFACE           
 AUXILIARY RIVER VARIABLE: CONDFACT        
 AUXILIARY RIVER VARIABLE: CELLGRP         
       3501 ELEMENTS IN RX ARRAY ARE USED BY RIV

 RCH6 -- RECHARGE PACKAGE, VERSION 6, 1/11/2000 INPUT READ FROM UNIT  716
 #GMS_HDF5_01
 No named parameters
 OPTION 3 -- RECHARGE TO HIGHEST ACTIVE NODE IN EACH VERTICAL COLUMN
 CELL-BY-CELL FLOWS WILL BE SAVED ON UNIT  740
       9600 ELEMENTS IN RX ARRAY ARE USED BY RCH
       9600 ELEMENTS IN IR ARRAY ARE USED BY RCH

      20131  ELEMENTS OF RX ARRAY USED OUT OF      20131
          0  ELEMENTS OF RZ ARRAY USED OUT OF          1
       9605  ELEMENTS OF IR ARRAY USED OUT OF       9605
1
 #GMS MODFLOW Simulation                                                         
 #18 October 2013                                                                

                1           2           3           4           5           6           7           8           9          10
               11          12          13          14          15          16          17          18          19          20
               21          22          23          24          25          26          27          28          29          30
               31          32          33          34          35          36          37          38          39          40
               41          42          43          44          45          46          47          48          49          50
               51          52          53          54          55          56          57          58          59          60
               61          62          63          64          65          66          67          68          69          70
               71          72          73          74          75          76          77          78          79          80
 ............................................................................................................................
   1            0           0           0           0           0           0           0           0           0           0
                0           0           0           0           0           0           0           0           0           0
                0           0           0           0           0           0           0           0           0           0
                0           0           0           0           0           0           0           0           0           0
                0           0           0           0           0           0           0           0           0           0
                0           0           0           0           0           0           0           0           0           0
                0           0           0           0           0           0           0           0           0           0
                0           0           0           0           0           0           0           0           0           0
   2            0           0           0           0           0           0           0           0           0           0
                0           0           0           0           0           0           0           0           0           0
                0           0           0           0           0           0           0           0           0           0
                0           0           0           0           0           0           0           0           0           0
                0           0           0           0           0           0           0           0           0           0
                0           0           0           0           0           0           0           0           0           0
                0           0           0           0           0           0           0           0           0           0
                0           0           0           0           0           0           0           0           0           0
   3            0           0           0           0           0           0           0           0           0           0
                0           0           0           0           0           0           0           0           0           0
                0           0           0           0           0           0           0           0           0           0
                0           0           0           0           0           0           0           0           1           1
                1           1           1           1           0           0           0           0           0           0
                0           0           0           0           0           0           0           0           0           0
                0           0           0           0           0           0           0           0           0           0
                0           0           0           0           0           0           0           0           0           0
   4            0           0           0           0           0           0           0           0           0           0
                0           0           0           0           0           0           0           0           0           0
                0           0           0           0           0           0           0           0           0           0
                0           0           0           0           0           1           1           1           1           1
                1           1           1           1           0           0           0           0           0           0
                0           0           0           0           0           0           0           0           0           0
                0           0           0           0           0           0           0           0           0           0
                0           0           0           0           0           0           0           0           0           0
   5            0           0           0           0           0           0           0           0           0           0
                0           0           0           0           0           0           0           0           0           0
                0           0           0           0           0           0           0           0           0           0
                0           0           1           1           1           1           1           1           1           1
                1           1           1           1           0           0           0           0           0           0
                0           0           0           0           0           0           0           0           0           0
                0           0           0           0           0           0           0           0           0           0
                0           0           0           0           0           0           0           0           0           0
   6            0           0           0           0           0           0           0           0           0           0
                0           0           0           0           0           0           0           0           0           0
                0           0           0           0           0           0           0           0           0           1
                1           1           1           1           1           1           1           1           1           1
                1           1           1           1           0           0           0           0           0           0
                0           0           0           0           0           0           0           0           0           0
                0           0           0           0           0           0           0           0           0           0
                0           0           0           0           0           0           0           0           0           0
   7            0           0           0           0           0           0           0           0           0           0
                0           0           0           0           0           0           0           0           0           0
                0           0           0           0           0           0           1           1           1           1
                1           1           1           1           1           1           1           1           1           1
                1           1           1           1           0           0           0           0           0           0
                0           0           0           0           0           0           0           0           0           0
                0           0           0           0           0           0           0           0           0           0
                0           0           0           0           0           0           0           0           0           0
   8            0           0           0           0           0           0           0           0           0           0
                0           0           0           0           0           0           0           0           0           0
                0           0           0           1           1           1           1           1           1           1
                1           1           1           1           1           1           1           1           1           1
                1           1           1           1           1           0           0           0           0           0
                0           0           0           0           0           0           0           0           0           0
                0           0           0           0           0           0           0           0           0           0
                0           0           0           0           0           0           0           0           0           0
   9            0           0           0           0           0           0           0           0           0           0
                0           0           0           0           0           0           0           0           0           0
                0           1           1           1           1           1           1           1           1           1
                1           1           1           1           1           1           1           1           1           1
                1           1           1           1           1           0           0           0           0           0
                0           0           0           0           0           0           0           0           0           0
                0           0           0           0           0           0           0           0           0           0
                0           0           0           0           0           0           0           0           0           0
  10            0           0           0           0           0           0           0           0           0           0
                0           0           0           0           0           0           0           0           0           1
                1           1           1           1           1           1           1           1           1           1
                1           1           1           1           1           1           1           1           1           1
                1           1           1           1           1           0           0           0           0           0
                0           0           0           0           0           0           0           0           0           0
                0           0           0           0           0           0           0           0           0           0
                0           0           0           0           0           0           0           0           0           0
  11            0           0           0           0           0           0           0           0           0           0
                0           0           0           0           0           0           0           1           1           1
                1           1           1           1           1           1           1           1           1           1
                1           1           1           1           1           1           1           1           1           1
                1           1           1           1           1           0           0           0           0           0
                0           0           0           0           0           0           0           0           0           0
                0           0           0           0           0           0           0           0           0           0
                0           0           0           0           0           0           0           0           0           0
  12            0           0           0           0           0           0           0           0           0           0
                0           0           0           0           0           1           1           1           1           1
                1           1           1           1           1           1           1           1           1           1
                1           1           1           1           1           1           1           1           1           1
                1           1           1           1           1           1           0           0           0           0
                0           0           0           0           0           0           0           0           0           0
                0           0           0           0           0           0           0           0           0           0
                0           0           0           0           0           0           0           0           0           0
  13            0           0           0           0           0           0           0           0           0           0
                0           0           0           0           1           1           1           1           1           1
                1           1           1           1           1           1           1           1           1           1
                1           1           1           1           1           1           1           1           1           1
                1           1           1           1           1           1           0           0           0           0
                0           0           0           0           0           0           0           0           0           0
                0           0           0           0           0           0           0           0           0           0
                0           0           0           0           0           0           0           0           0           0
  14            0           0           0           0           0           0           0           0           0           0
                0           0           0           0           0           1           1           1           1           1
                1           1           1           1           1           1           1           1           1           1
                1           1           1           1           1           1           1           1           1           1
                1           1           1           1           1           1           1           0           0           0
                0           0           0           0           0           0           0           0           0           0
                0           0           0           0           0           0           0           0           0           0
                0           0           0           0           0           0           0           0           0           0
  15            0           0           0           0           0           0           0           0           0           0
                0           0           0           0           0           1           1           1           1           1
                1           1           1           1           1           1           1           1           1           1
                1           1           1           1           1           1           1           1           1           1
                1           1           1           1           1           1           1           0           0           0
                0           0           0           0           0           0           0           0           0           0
                0           0           0           0           0           0           0           0           0           0
                0           0           0           0           0           0           0           0           0           0
  16            0           0           0           0           0           0           0           0           0           0
                0           0           0           0           0           0           1           1           1           1
                1           1           1           1           1           1           1           1           1           1
                1           1           1           1           1           1           1           1           1           1
                1           1           1           1           1           1           1           1           0           0
                0           0           0           0           0           0           0           0           0           0
                0           0           0           0           0           0           0           0           0           0
                0           0           0           0           0           0           0           0           0           0
  17            0           0           0           0           0           0           0           0           0           0
                0           0           0           0           0           0           1           1           1           1
                1           1           1           1           1           1           1           1           1           1
                1           1           1           1           1           1           1           1           1           1
                1           1           1           1           1           1           1           1           1           0
                0           0           0           0           0           0           0           0           0           0
                0           0           0           0           0           0           0           0           0           0
                0           0           0           0           0           0           0           0           0           0
  18            0           0           0           0           0           0           0           0           0           0
                0           0           0           0           0           0           0           1           1           1
                1           1           1           1           1           1           1           1           1           1
                1           1           1           1           1           1           1           1           1           1
                1           1           1           1           1           1           1           1           1           1
                0           0           0           0           0           0           0           0           0           0
                0           0           0           0           0           0           0           0           0           0
                0           0           0           0           0           0           0           0           0           0
  19            0           0           0           0           0           0           0           0           0           0
                0           0           0           0           0           0           0           1           1           1
                1           1           1           1           1           1           1           1           1           1
                1           1           1           1           1           1           1           1           1           1
                1           1           1           1           1           1           1           1           1           1
                1           0           0           0           0           0           0           0           0           0
                0           0           0           0           0           0           0           0           0           0
                0           0           0           0           0           0           0           0           0           0
  20            0           0           0           0           0           0           0           0           0           0
                0           0           0           0           0           0           0           0           1           1
                1           1           1           1           1           1           1           1           1           1
                1           1           1           1           1           1           1           1           1           1
                1           1           1           1           1           1           1           1           1           1
                1           1           0           0           0           0           0           0           0           0
                0           0           0           0           0           0           0           0           0           0
                0           0           0           0           0           0           0           0           0           0
  21            0           0           0           0           0           0           0           0           0           0
                0           0           0           0           0           0           0           0           1           1
                1           1           1           1           1           1           1           1           1           1
                1           1           1           1           1           1           1           1           1           1
                1           1           1           1           1           1           1           1           1           1
                1           1           1           0           0           0           0           0           0           0
                0           0           0           0           0           0           0           0           0           0
                0           0           0           0           0           0           0           0           0           0
  22            0           0           0           0           0           0           0           0           0           0
                0           0           0           0           0           0           0           0           0           1
                1           1           1           1           1           1           1           1           1           1
                1           1           1           1           1           1           1           1           1           1
                1           1           1           1           1           1           1           1           1           1
                1           1           1           1           1           0           0           0           0           0
                0           0           0           0           0           0           0           0           0           0
                0           0           0           0           0           0           0           0           0           0
  23            0           0           0           0           0           0           0           0           0           0
                0           0           0           0           0           0           0           0           0           1
                1           1           1           1           1           1           1           1           1           1
                1           1           1           1           1           1           1           1           1           1
                1           1           1           1           1           1           1           1           1           1
                1           1           1           1           1           1           0           0           0           0
                0           0           0           0           0           0           0           0           0           0
                0           0           0           0           0           0           0           0           0           0
  24            0           0           0           0           0           0           0           0           0           0
                0           0           0           0           0           0           0           0           0           0
                1           1           1           1           1           1           1           1           1           1
                1           1           1           1           1           1           1           1           1           1
                1           1           1           1           1           1           1           1           1           1
                1           1           1           1           1           1           1           0           0           0
                0           0           0           0           0           0           0           0           0           0
                0           0           0           0           0           0           0           0           0           0
  25            0           0           0           0           0           0           0           0           0           0
                0           0           0           0           0           0           0           0           0           0
                1           1           1           1           1           1           1           1           1           1
                1           1           1           1           1           1           1           1           1           1
                1           1           1           1           1           1           1           1           1           1
                1           1           1           1           1           1           1           1           0           0
                0           0           0           0           0           0           0           0           0           0
                0           0           0           0           0           0           0           0           0           0
  26            0           0           0           0           0           0           0           0           0           0
                0           0           0           0           0           0           0           0           0           0
                1           1           1           1           1           1           1           1           1           1
                1           1           1           1           1           1           1           1           1           1
                1           1           1           1           1           1           1           1           1           1
                1           1           1           1           1           1           1           1           1           0
                0           0           0           0           0           0           0           0           0           0
                0           0           0           0           0           0           0           0           0           0
  27            0           0           0           0           0           0           0           0           0           0
                0           0           0           0           0           0           0           0           0           0
                1           1           1           1           1           1           1           1           1           1
                1           1           1           1           1           1           1           1           1           1
                1           1           1           1           1           1           1           1           1           1
                1           1           1           1           1           1           1           1           1           1
                0           0           0           0           0           0           0           0           0           0
                0           0           0           0           0           0           0           0           0           0
  28            0           0           0           0           0           0           0           0           0           0
                0           0           0           0           0           0           0           0           0           0
                1           1           1           1           1           1           1           1           1           1
                1           1           1           1           1           1           1           1           1           1
                1           1           1           1           1           1           1           1           1           1
                1           1           1           1           1           1           1           1           1           1
                1           1           1           1           1           1           1           0           0           0
                0           0           0           0           0           0           0           0           0           0
  29            0           0           0           0           0           0           0           0           0           0
                0           0           0           0           0           0           0           0           0           0
                1           1           1           1           1           1           1           1           1           1
                1           1           1           1           1           1           1           1           1           1
                1           1           1           1           1           1           1           1           1           1
                1           1           1           1           1           1           1           1           1           1
                1           1           1           1           1           1           1           1           0           0
                0           0           0           0           0           0           0           0           0           0
  30            0           0           0           0           0           0           0           0           0           0
                0           0           0           0           0           0           0           0           0           0
                1           1           1           1           1           1           1           1           1           1
                1           1           1           1           1           1           1           1           1           1
                1           1           1           1           1           1           1           1           1           1
                1           1           1           1           1           1           1           1           1           1
                1           1           1           1           1           1           1           1           1           1
                0           0           0           0           0           0           0           0           0           0
  31            0           0           0           0           0           0           0           0           0           0
                0           0           0           0           0           0           0           0           0           0
                1           1           1           1           1           1           1           1           1           1
                1           1           1           1           1           1           1           1           1           1
                1           1           1           1           1           1           1           1           1           1
                1           1           1           1           1           1           1           1           1           1
                1           1           1           1           1           1           1           1           1           1
                1           0           0           0           0           0           0           0           0           0
  32            0           0           0           0           0           0           0           0           0           0
                0           0           0           0           0           0           0           0           0           0
                1           1           1           1           1           1           1           1           1           1
                1           1           1           1           1           1           1           1           1           1
                1           1           1           1           1           1           1           1           1           1
                1           1           1           1           1           1           1           1           1           1
                1           1           1           1           1           1           1           1           1           1
                1           0           0           0           0           0           0           0           0           0
  33            0           0           0           0           0           0           0           0           0           0
                0           0           0           0           0           0           0           0           0           0
                1           1           1           1           1           1           1           1           1           1
                1           1           1           1           1           1           1           1           1           1
                1           1           1           1           1           1           1           1           1           1
                1           1           1           1           1           1           1           1           1           1
                1           1           1           1           1           1           1           1           1           1
                1           1           0           0           0           0           0           0           0           0
  34            0           0           0           0           0           0           0           0           0           0
                0           0           0           0           0           0           0           0           0           0
                1           1           1           1           1           1           1           1           1           1
                1           1           1           1           1           1           1           1           1           1
                1           1           1           1           1           1           1           1           1           1
                1           1           1           1           1           1           1           1           1           1
                1           1           1           1           1           1           1           1           1           1
                1           1           0           0           0           0           0           0           0           0
  35            0           0           0           0           0           0           0           0           0           0
                0           0           0           0           0           0           0           0           0           0
                1           1           1           1           1           1           1           1           1           1
                1           1           1           1           1           1           1           1           1           1
                1           1           1           1           1           1           1           1           1           1
                1           1           1           1           1           1           1           1           1           1
                1           1           1           1           1           1           1           1           1           1
                1           1           0           0           0           0           0           0           0           0
  36            0           0           0           0           0           0           0           0           0           0
                0           0           0           0           0           0           0           0           0           0
                1           1           1           1           1           1           1           1           1           1
                1           1           1           1           1           1           1           1           1           1
                1           1           1           1           1           1           1           1           1           1
                1           1           1           1           1           1           1           1           1           1
                1           1           1           1           1           1           1           1           1           1
                1           1           1           0           0           0           0           0           0           0
  37            0           0           0           0           0           0           0           0           0           0
                0           0           0           0           0           0           0           0           0           1
                1           1           1           1           1           1           1           1           1           1
                1           1           1           1           1           1           1           1           1           1
                1           1           1           1           1           1           1           1           1           1
                1           1           1           1           1           1           1           1           1           1
                1           1           1           1           1           1           1           1           1           1
                1           1           1           0           0           0           0           0           0           0
  38            0           0           0           0           0           0           0           0           0           0
                0           0           0           0           0           0           0           0           0           1
                1           1           1           1           1           1           1           1           1           1
                1           1           1           1           1           1           1           1           1           1
                1           1           1           1           1           1           1           1           1           1
                1           1           1           1           1           1           1           1           1           1
                1           1           1           1           1           1           1           1           1           1
                1           1           1           0           0           0           0           0           0           0
  39            0           0           0           0           0           0           0           0           0           0
                0           0           0           0           0           0           0           0           0           1
                1           1           1           1           1           1           1           1           1           1
                1           1           1           1           1           1           1           1           1           1
                1           1           1           1           1           1           1           1           1           1
                1           1           1           1           1           1           1           1           1           1
                1           1           1           1           1           1           1           1           1           1
                1           1           1           0           0           0           0           0           0           0
  40            0           0           0           0           0           0           0           0           0           0
                0           0           0           0           0           0           0           0           0           1
                1           1           1           1           1           1           1           1           1           1
                1           1           1           1           1           1           1           1           1           1
                1           1           1           1           1           1           1           1           1           1
                1           1           1           1           1           1           1           1           1           1
                1           1           1           1           1           1           1           1           1           1
                1           1           1           1           0           0           0           0           0           0
  41            0           0           0           0           0           0           0           0           0           0
                0           0           0           0           0           0           0           0           0           1
                1           1           1           1           1           1           1           1           1           1
                1           1           1           1           1           1           1           1           1           1
                1           1           1           1           1           1           1           1           1           1
                1           1           1           1           1           1           1           1           1           1
                1           1           1           1           1           1           1           1           1           1
                1           1           1           1           0           0           0           0           0           0
  42            0           0           0           0           0           0           0           0           0           0
                0           0           0           0           0           0           0           0           0           1
                1           1           1           1           1           1           1           1           1           1
                1           1           1           1           1           1           1           1           1           1
                1           1           1           1           1           1           1           1           1           1
                1           1           1           1           1           1           1           1           1           1
                1           1           1           1           1           1           1           1           1           1
                1           1           1           1           0           0           0           0           0           0
  43            0           0           0           0           0           0           0           0           0           0
                0           0           0           0           0           0           0           0           0           1
                1           1           1           1           1           1           1           1           1           1
                1           1           1           1           1           1           1           1           1           1
                1           1           1           1           1           1           1           1           1           1
                1           1           1           1           1           1           1           1           1           1
                1           1           1           1           1           1           1           1           1           1
                1           1           1           1           0           0           0           0           0           0
  44            0           0           0           0           0           0           0           0           0           0
                0           0           0           0           0           0           0           0           1           1
                1           1           1           1           1           1           1           1           1           1
                1           1           1           1           1           1           1           1           1           1
                1           1           1           1           1           1           1           1           1           1
                1           1           1           1           1           1           1           1           1           1
                1           1           1           1           1           1           1           1           1           1
                1           1           1           1           0           0           0           0           0           0
  45            0           0           0           0           0           0           0           0           0           0
                0           0           0           0           0           0           0           0           1           1
                1           1           1           1           1           1           1           1           1           1
                1           1           1           1           1           1           1           1           1           1
                1           1           1           1           1           1           1           1           1           1
                1           1           1           1           1           1           1           1           1           1
                1           1           1           1           1           1           1           1           1           1
                1           1           1           1           1           0           0           0           0           0
  46            0           0           0           0           0           0           0           0           0           0
                0           0           0           0           0           0           0           0           1           1
                1           1           1           1           1           1           1           1           1           1
                1           1           1           1           1           1           1           1           1           1
                1           1           1           1           1           1           1           1           1           1
                1           1           1           1           1           1           1           1           1           1
                1           1           1           1           1           1           1           1           1           1
                1           1           1           1           1           0           0           0           0           0
  47            0           0           0           0           0           0           0           0           0           0
                0           0           0           0           0           0           0           0           1           1
                1           1           1           1           1           1           1           1           1           1
                1           1           1           1           1           1           1           1           1           1
                1           1           1           1           1           1           1           1           1           1
                1           1           1           1           1           1           1           1           1           1
                1           1           1           1           1           1           1           1           1           1
                1           1           1           1           1           1           0           0           0           0
  48            0           0           0           0           0           0           0           0           0           0
                0           0           0           0           0           0           0           1           1           1
                1           1           1           1           1           1           1           1           1           1
                1           1           1           1           1           1           1           1           1           1
                1           1           1           1           1           1           1           1           1           1
                1           1           1           1           1           1           1           1           1           1
                1           1           1           1           1           1           1           1           1           1
                1           1           1           1           1           1           0           0           0           0
  49            0           0           0           0           0           0           0           0           0           0
                0           0           0           0           0           0           0           1           1           1
                1           1           1           1           1           1           1           1           1           1
                1           1           1           1           1           1           1           1           1           1
                1           1           1           1           1           1           1           1           1           1
                1           1           1           1           1           1           1           1           1           1
                1           1           1           1           1           1           1           1           1           1
                1           1           1           1           1           1           1           0           0           0
  50            0           0           0           0           0           0           0           0           0           0
                0           0           0           0           0           0           0           1           1           1
                1           1           1           1           1           1           1           1           1           1
                1           1           1           1           1           1           1           1           1           1
                1           1           1           1           1           1           1           1           1           1
                1           1           1           1           1           1           1           1           1           1
                1           1           1           1           1           1           1           1           1           1
                1           1           1           1           1           1           1           0           0           0
  51            0           0           0           0           0           0           0           0           0           0
                0           0           0           0           0           0           1           1           1           1
                1           1           1           1           1           1           1           1           1           1
                1           1           1           1           1           1           1           1           1           1
                1           1           1           1           1           1           1           1           1           1
                1           1           1           1           1           1           1           1           1           1
                1           1           1           1           1           1           1           1           1           1
                1           1           1           1           1           1           1           0           0           0
  52            0           0           0           0           0           0           0           0           0           0
                0           0           0           0           0           0           1           1           1           1
                1           1           1           1           1           1           1           1           1           1
                1           1           1           1           1           1           1           1           1           1
                1           1           1           1           1           1           1           1           1           1
                1           1           1           1           1           1           1           1           1           1
                1           1           1           1           1           1           1           1           1           1
                1           1           1           1           1           1           1           0           0           0
  53            0           0           0           0           0           0           0           0           0           0
                0           0           0           0           0           1           1           1           1           1
                1           1           1           1           1           1           1           1           1           1
                1           1           1           1           1           1           1           1           1           1
                1           1           1           1           1           1           1           1           1           1
                1           1           1           1           1           1           1           1           1           1
                1           1           1           1           1           1           1           1           1           1
                1           1           1           1           1           1           1           0           0           0
  54            0           0           0           0           0           0           0           0           0           0
                0           0           0           0           0           1           1           1           1           1
                1           1           1           1           1           1           1           1           1           1
                1           1           1           1           1           1           1           1           1           1
                1           1           1           1           1           1           1           1           1           1
                1           1           1           1           1           1           1           1           1           1
                1           1           1           1           1           1           1           1           1           1
                1           1           1           1           1           1           0           0           0           0
  55            0           0           0           0           0           0           0           0           0           0
                0           0           0           0           0           1           1           1           1           1
                1           1           1           1           1           1           1           1           1           1
                1           1           1           1           1           1           1           1           1           1
                1           1           1           1           1           1           1           1           1           1
                1           1           1           1           1           1           1           1           1           1
                1           1           1           1           1           1           1           1           1           1
                1           1           1           1           1           1           0           0           0           0
  56            0           0           0           0           0           0           0           0           0           0
                0           0           0           0           0           1           1           1           1           1
                1           1           1           1           1           1           1           1           1           1
                1           1           1           1           1           1           1           1           1           1
                1           1           1           1           1           1           1           1           1           1
                1           1           1           1           1           1           1           1           1           1
                1           1           1           1           1           1           1           1           1           1
                1           1           1           1           1           1           0           0           0           0
  57            0           0           0           0           0           0           0           0           0           0
                0           0           0           0           0           1           1           1           1           1
                1           1           1           1           1           1           1           1           1           1
                1           1           1           1           1           1           1           1           1           1
                1           1           1           1           1           1           1           1           1           1
                1           1           1           1           1           1           1           1           1           1
                1           1           1           1           1           1           1           1           1           1
                1           1           1           1           1           1           0           0           0           0
  58            0           0           0           0           0           0           0           0           0           0
                0           0           0           0           0           1           1           1           1           1
                1           1           1           1           1           1           1           1           1           1
                1           1           1           1           1           1           1           1           1           1
                1           1           1           1           1           1           1           1           1           1
                1           1           1           1           1           1           1           1           1           1
                1           1           1           1           1           1           1           1           1           1
                1           1           1           1           1           1           0           0           0           0
  59            0           0           0           0           0           0           0           0           0           0
                0           0           0           0           0           0           1           1           1           1
                1           1           1           1           1           1           1           1           1           1
                1           1           1           1           1           1           1           1           1           1
                1           1           1           1           1           1           1           1           1           1
                1           1           1           1           1           1           1           1           1           1
                1           1           1           1           1           1           1           1           1           1
                1           1           1           1           1           1           0           0           0           0
  60            0           0           0           0           0           0           0           0           0           0
                0           0           0           0           0           0           1           1           1           1
                1           1           1           1           1           1           1           1           1           1
                1           1           1           1           1           1           1           1           1           1
                1           1           1           1           1           1           1           1           1           1
                1           1           1           1           1           1           1           1           1           1
                1           1           1           1           1           1           1           1           1           1
                1           1           1           1           1           1           0           0           0           0
  61            0           0           0           0           0           0           0           0           0           0
                0           0           0           0           0           0           1           1           1           1
                1           1           1           1           1           1           1           1           1           1
                1           1           1           1           1           1           1           1           1           1
                1           1           1           1           1           1           1           1           1           1
                1           1           1           1           1           1           1           1           1           1
                1           1           1           1           1           1           1           1           1           1
                1           1           1           1           1           1           0           0           0           0
  62            0           0           0           0           0           0           0           0           0           0
                0           0           0           0           0           0           1           1           1           1
                1           1           1           1           1           1           1           1           1           1
                1           1           1           1           1           1           1           1           1           1
                1           1           1           1           1           1           1           1           1           1
                1           1           1           1           1           1           1           1           1           1
                1           1           1           1           1           1           1           1           1           1
                1           1           1           1           1           1           1           0           0           0
  63            0           0           0           0           0           0           0           0           0           0
                0           0           0           0           0           0           1           1           1           1
                1           1           1           1           1           1           1           1           1           1
                1           1           1           1           1           1           1           1           1           1
                1           1           1           1           1           1           1           1           1           1
                1           1           1           1           1           1           1           1           1           1
                1           1           1           1           1           1           1           1           1           1
                1           1           1           1           1           1           1           0           0           0
  64            0           0           0           0           0           0           0           0           0           0
                0           0           0           0           0           0           1           1           1           1
                1           1           1           1           1           1           1           1           1           1
                1           1           1           1           1           1           1           1           1           1
                1           1           1           1           1           1           1           1           1           1
                1           1           1           1           1           1           1           1           1           1
                1           1           1           1           1           1           1           1           1           1
                1           1           1           1           1           1           1           0           0           0
  65            0           0           0           0           0           0           0           0           0           0
                0           0           0           0           0           0           1           1           1           1
                1           1           1           1           1           1           1           1           1           1
                1           1           1           1           1           1           1           1           1           1
                1           1           1           1           1           1           1           1           1           1
                1           1           1           1           1           1           1           1           1           1
                1           1           1           1           1           1           1           1           1           1
                1           1           1           1           1           1           1           1           0           0
  66            0           0           0           0           0           0           0           0           0           0
                0           0           0           0           0           0           1           1           1           1
                1           1           1           1           1           1           1           1           1           1
                1           1           1           1           1           1           1           1           1           1
                1           1           1           1           1           1           1           1           1           1
                1           1           1           1           1           1           1           1           1           1
                1           1           1           1           1           1           1           1           1           1
                1           1           1           1           1           1           1           1           0           0
  67            0           0           0           0           0           0           0           0           0           0
                0           0           0           0           0           0           1           1           1           1
                1           1           1           1           1           1           1           1           1           1
                1           1           1           1           1           1           1           1           1           1
                1           1           1           1           1           1           1           1           1           1
                1           1           1           1           1           1           1           1           1           1
                1           1           1           1           1           1           1           1           1           1
                1           1           1           1           1           1           1           1           0           0
  68            0           0           0           0           0           0           0           0           0           0
                0           0           0           0           0           0           1           1           1           1
                1           1           1           1           1           1           1           1           1           1
                1           1           1           1           1           1           1           1           1           1
                1           1           1           1           1           1           1           1           1           1
                1           1           1           1           1           1           1           1           1           1
                1           1           1           1           1           1           1           1           1           1
                1           1           1           1           1           1           1           0           0           0
  69            0           0           0           0           0           0           0           0           0           0
                0           0           0           0           0           1           1           1           1           1
                1           1           1           1           1           1           1           1           1           1
                1           1           1           1           1           1           1           1           1           1
                1           1           1           1           1           1           1           1           1           1
                1           1           1           1           1           1           1           1           1           1
                1           1           1           1           1           1           1           1           1           1
                1           1           1           1           1           1           1           0           0           0
  70            0           0           0           0           0           0           0           0           0           0
                0           0           0           0           0           1           1           1           1           1
                1           1           1           1           1           1           1           1           1           1
                1           1           1           1           1           1           1           1           1           1
                1           1           1           1           1           1           1           1           1           1
                1           1           1           1           1           1           1           1           1           1
                1           1           1           1           1           1           1           1           1           1
                1           1           1           1           1           1           1           0           0           0
  71            0           0           0           0           0           0           0           0           0           0
                0           0           0           0           0           1           1           1           1           1
                1           1           1           1           1           1           1           1           1           1
                1           1           1           1           1           1           1           1           1           1
                1           1           1           1           1           1           1           1           1           1
                1           1           1           1           1           1           1           1           1           1
                1           1           1           1           1           1           1           1           1           1
                1           1           1           1           1           1           1           0           0           0
  72            0           0           0           0           0           0           0           0           0           0
                0           0           0           0           1           1           1           1           1           1
                1           1           1           1           1           1           1           1           1           1
                1           1           1           1           1           1           1           1           1           1
                1           1           1           1           1           1           1           1           1           1
                1           1           1           1           1           1           1           1           1           1
                1           1           1           1           1           1           1           1           1           1
                1           1           1           1           1           1           1           0           0           0
  73            0           0           0           0           0           0           0           0           0           0
                0           0           0           0           1           1           1           1           1           1
                1           1           1           1           1           1           1           1           1           1
                1           1           1           1           1           1           1           1           1           1
                1           1           1           1           1           1           1           1           1           1
                1           1           1           1           1           1           1           1           1           1
                1           1           1           1           1           1           1           1           1           1
                1           1           1           1           1           1           1           0           0           0
  74            0           0           0           0           0           0           0           0           0           0
                0           0           0           0           1           1           1           1           1           1
                1           1           1           1           1           1           1           1           1           1
                1           1           1           1           1           1           1           1           1           1
                1           1           1           1           1           1           1           1           1           1
                1           1           1           1           1           1           1           1           1           1
                1           1           1           1           1           1           1           1           1           1
                1           1           1           1           1           1           0           0           0           0
  75            0           0           0           0           0           0           0           0           0           0
                0           0           0           0           1           1           1           1           1           1
                1           1           1           1           1           1           1           1           1           1
                1           1           1           1           1           1           1           1           1           1
                1           1           1           1           1           1           1           1           1           1
                1           1           1           1           1           1           1           1           1           1
                1           1           1           1           1           1           1           1           1           1
                1           1           1           1           1           1           0           0           0           0
  76            0           0           0           0           0           0           0           0           0           0
                0           0           0           0           1           1           1           1           1           1
                1           1           1           1           1           1           1           1           1           1
                1           1           1           1           1           1           1           1           1           1
                1           1           1           1           1           1           1           1           1           1
                1           1           1           1           1           1           1           1           1           1
[...]
    337      1    104     69       2097.          0.4769           2094.           6.000           92.00           10.00    
    338      1    103     69       2097.          0.1605E-01       2094.           6.000           3.095           10.00    
    339      1    103     68       2097.          0.4095           2094.           6.000           79.00           10.00    
    340      1    103     67       2097.          0.3583           2094.           6.000           69.11           10.00    
    341      1    103     66       2097.          0.2487           2094.           6.000           47.97           10.00    
    342      1    102     66       2097.          0.1096           2094.           6.000           21.14           10.00    
    343      1    102     65       2097.          0.3583           2094.           6.000           69.11           10.00    
    344      1    102     64       2097.          0.2963           2094.           6.000           57.16           10.00    
    345      1    103     64       2097.          0.8895E-01       2094.           6.000           17.16           10.00    
    346      1    103     63       2097.          0.3143           2094.           6.000           60.64           10.00    
    347      1    102     63       2097.          0.6410E-01       2094.           6.000           12.36           10.00    
    348      1    102     62       2097.          0.3757           2094.           6.000           72.47           10.00    
    349      1    102     61       2097.          0.3882           2094.           6.000           74.88           10.00    
    350      1    101     61       2097.          0.2551E-01       2094.           6.000           4.921           10.00    
    351      1    101     60       2097.          0.4662           2094.           6.000           89.92           10.00    
    352      1    100     60       2097.          0.4106E-01       2094.           6.000           7.921           10.00    
    353      1    100     59       2097.          0.3882           2094.           6.000           74.88           10.00    
    354      1    100     58       2097.          0.3529           2094.           6.000           68.08           10.00    
    355      1     99     58       2097.          0.3788E-01       2094.           6.000           7.307           10.00    
    356      1     99     57       2097.          0.4035           2094.           6.000           77.84           10.00    
    357      1     99     56       2097.          0.2519           2094.           6.000           48.59           10.00    
    358      1     98     56       2097.          0.1516           2094.           6.000           29.25           10.00    
    359      1     98     55       2097.          0.3588           2094.           6.000           69.21           10.00    
    360      1     98     54       2097.          0.3489           2094.           6.000           67.31           10.00    
    361      1     98     53       2097.          0.3505           2094.           6.000           67.61           10.00    
    362      1     98     52       2097.          0.5246E-01       2094.           6.000           10.12           10.00    
    363      1     98     52       2097.          0.2898E-01       2094.           6.000           5.589           11.00    
    364      1     99     52       2099.          0.4320           2096.           6.000           83.34           11.00    
    365      1    100     52       2101.          0.6221E-01       2098.           6.000           12.00           11.00    
    366      1    100     51       2102.          0.3631           2099.           6.000           70.04           11.00    
    367      1    101     51       2105.          0.3818           2102.           6.000           73.65           11.00    
    368      1    102     51       2106.          0.7068E-01       2103.           6.000           13.63           11.00    
    369      1    102     50       2108.          0.3003           2105.           6.000           57.93           11.00    
    370      1    103     50       2110.          0.3959           2107.           6.000           76.38           11.00    
    371      1    104     50       2112.          0.2134           2109.           6.000           41.16           11.00    
    372      1    104     49       2114.          0.1878           2111.           6.000           36.22           11.00    
    373      1    105     49       2115.          0.3789           2112.           6.000           73.10           11.00    
    374      1    106     49       2118.          0.3899           2115.           6.000           75.21           11.00    
    375      1    107     49       2120.          0.1726           2117.           6.000           33.30           11.00    
    376      1    107     48       2122.          0.3484           2119.           6.000           67.21           11.00    
    377      1    108     48       2124.          0.2573           2121.           6.000           49.64           11.00    
    378      1    108     47       2125.          0.1333           2122.           6.000           25.72           11.00    
    379      1    109     47       2127.          0.3906           2124.           6.000           75.36           11.00    
    380      1    110     47       2130.          0.3318           2127.           6.000           64.01           11.00    
    381      1    110     46       2131.          0.5728E-01       2128.           6.000           11.05           11.00    
    382      1    111     46       2132.          0.3643           2129.           6.000           70.27           11.00    
    383      1    112     46       2135.          0.3643           2132.           6.000           70.27           11.00    
    384      1    113     46       2137.          0.3643           2134.           6.000           70.27           11.00    
    385      1    114     46       2139.          0.2227           2136.           6.000           42.95           11.00    
    386      1    114     45       2141.          0.2034           2138.           6.000           39.24           11.00    
    387      1    115     45       2143.          0.4144           2140.           6.000           79.94           11.00    
    388      1    115     44       2144.          0.1678E-01       2141.           6.000           3.236           11.00    
    389      1    116     44       2146.          0.4312           2143.           6.000           83.18           11.00    

    389 RIVER REACHES
 
 SOLVING FOR HEAD 

 OUTPUT CONTROL FOR STRESS PERIOD    1   TIME STEP   1
    PRINT BUDGET
    SAVE HEAD FOR ALL LAYERS
    SAVE BUDGET
 UBDSV2 SAVING "   CONSTANT HEAD" ON UNIT 740 AT TIME STEP  1, STRESS PERIOD   1
 UBDSV1 SAVING "FLOW RIGHT FACE " ON UNIT 740 AT TIME STEP  1, STRESS PERIOD   1
 UBDSV1 SAVING "FLOW FRONT FACE " ON UNIT 740 AT TIME STEP  1, STRESS PERIOD   1
 UBDSV4 SAVING "           WELLS" ON UNIT 740 AT TIME STEP  1, STRESS PERIOD   1
 UBDSV4 SAVING "          DRAINS" ON UNIT 740 AT TIME STEP  1, STRESS PERIOD   1
 UBDSV4 SAVING "   RIVER LEAKAGE" ON UNIT 740 AT TIME STEP  1, STRESS PERIOD   1
 UBDSV3 SAVING "        RECHARGE" ON UNIT 740 AT TIME STEP  1, STRESS PERIOD   1


 ***Link-MT3DMS Package***
 OPENING LINK-MT3DMS OUTPUT FILE: bbottoms.hff                                                                                                                                                                                            
 ON UNIT NUMBER:   333
 FILE TYPE: UNFORMATTED
 HEADER OPTION: STANDARD
 ***Link-MT3DMS Package***


 SAVING SATURATED THICKNESS AND FLOW TERMS ON UNIT  333 FOR MT3DMS
 BY THE LINK-MT3DMS PACKAGE V6.3 AT TIME STEP    1, STRESS PERIOD    1


 HEAD WILL BE SAVED ON UNIT  730 AT END OF TIME STEP   1, STRESS PERIOD    1
1
  VOLUMETRIC BUDGET FOR ENTIRE MODEL AT END OF TIME STEP  1 IN STRESS PERIOD   1
  ------------------------------------------------------------------------------

     CUMULATIVE VOLUMES      L**3       RATES FOR THIS TIME STEP      L**3/T
     ------------------                 ------------------------

           IN:                                      IN:
           ---                                      ---
             STORAGE =           0.0000               STORAGE =           0.0000
       CONSTANT HEAD =           0.0000         CONSTANT HEAD =           0.0000
               WELLS =           0.0000                 WELLS =           0.0000
              DRAINS =           0.0000                DRAINS =           0.0000
       RIVER LEAKAGE =         158.9664         RIVER LEAKAGE =         158.9664
            RECHARGE =        5743.4673              RECHARGE =        5743.4673

            TOTAL IN =        5902.4336              TOTAL IN =        5902.4336

          OUT:                                     OUT:
          ----                                     ----
             STORAGE =           0.0000               STORAGE =           0.0000
       CONSTANT HEAD =           0.0000         CONSTANT HEAD =           0.0000
               WELLS =        2400.0000                 WELLS =        2400.0000
              DRAINS =        3383.0134                DRAINS =        3383.0134
       RIVER LEAKAGE =         119.1546         RIVER LEAKAGE =         119.1546
            RECHARGE =           0.0000              RECHARGE =           0.0000

           TOTAL OUT =        5902.1685             TOTAL OUT =        5902.1685

            IN - OUT =           0.2651              IN - OUT =           0.2651

 PERCENT DISCREPANCY =           0.00     PERCENT DISCREPANCY =           0.00






          TIME SUMMARY AT END OF TIME STEP   1 IN STRESS PERIOD    1
                    SECONDS     MINUTES      HOURS       DAYS        YEARS
                    -----------------------------------------------------------
   TIME STEP LENGTH  86400.      1440.0      24.000      1.0000     2.73785E-03
 STRESS PERIOD TIME  86400.      1440.0      24.000      1.0000     2.73785E-03
         TOTAL TIME  86400.      1440.0      24.000      1.0000     2.73785E-03
1

 HEADS AT RIVER CELLS ARE BELOW THE BOTTOM OF THE RIVER BED AT THE CELLS LISTED
 BELOW.  THESE CONDITIONS DIMINISH THE IMPACT OF THE OBSERVATION ON ESTIMATES OF
 ALL PARAMETERS EXCEPT THOSE THAT CONTROL THE HYDRAULIC CONDUCTIVITY OF THE
 RIVER BED.  (SEE TEXT FOR MORE INFORMATION).

 OBS#      2, ID no_rivf0    , TIME STEP     1
    LAYER   ROW  COLUMN
      1     36     26
      1     35     26
      1     35     25
      1     34     25
      1     34     24
      1     33     24
      1     33     23
      1     32     23
      1     32     22
      1     31     22
      1     30     22
      1     30     21
      1     29     21
      1     28     21
     14 OF THE     25 CELLS USED TO SIMULATE THE GAIN OR LOSS ARE
                      AFFECTED.

 OBS#      3, ID no_rivf1    , TIME STEP     1
    LAYER   ROW  COLUMN
      1     44     33
      1     44     34
      1     44     35
      1     44     36
      1     45     36
      1     45     37
      1     45     38
      1     45     39
      1     45     40
      1     45     41
      1     45     42
      1     46     42
      1     46     43
      1     46     44
      1     46     45
      1     47     45
      1     47     46
      1     47     47
      1     48     47
      1     48     48
      1     48     49
      1     49     49
      1     49     50
      1     49     51
      1     49     52
      1     49     53
      1     50     53
      1     50     54
      1     49     54
      1     49     55
      1     49     56
      1     49     57
      1     49     58
      1     48     58
      1     48     59
      1     48     60
      1     48     61
      1     48     62
      1     47     62
      1     47     63
      1     47     64
      1     46     64
      1     46     65
      1     46     66
      1     45     66
      1     45     67
      1     45     68
      1     45     69
      1     46     69
      1     46     70
      1     46     71
      1     46     72
      1     46     73
      1     47     73
      1     47     74
      1     47     75
      1     47     76
      1     48     76
     58 OF THE     65 CELLS USED TO SIMULATE THE GAIN OR LOSS ARE
                      AFFECTED.

 OBS#      6, ID no_rivf4    , TIME STEP     1
    LAYER   ROW  COLUMN
      1    101     15
      1    101     14
      1    102     14
      1    102     13
      1    102     12
      1    101     12
      1    101     11
      1    101     10
      1    100     10
      1    100      9
      1    100      8
      1    100      7
      1    101      7
      1    101      6
      1    102      6
      1    102      5
      1    102      4
      1    102      3
     18 OF THE     58 CELLS USED TO SIMULATE THE GAIN OR LOSS ARE
                      AFFECTED.

 OBS#      9, ID no_rivf7    , TIME STEP     1
    LAYER   ROW  COLUMN
      1    103     50
      1    104     50
      1    104     49
      1    105     49
      1    106     49
      1    107     49
      1    107     48
      1    108     48
      1    108     47
      1    109     47
      1    110     47
      1    110     46
      1    111     46
      1    112     46
      1    113     46
      1    114     46
      1    114     45
      1    115     45
      1    115     44
      1    116     44
     20 OF THE     29 CELLS USED TO SIMULATE THE GAIN OR LOSS ARE
                      AFFECTED.

 OBS#     10, ID no_rivf8    , TIME STEP     1
    LAYER   ROW  COLUMN
      1     20     25
      1     20     26
      1     19     26
      1     19     27
      1     19     28
      1     18     28
      1     18     29
      1     17     29
      1     17     30
      1     17     31
      1     16     31
      1     16     32
      1     15     32
      1     15     33
      1     14     33
      1     14     34
      1     13     34
      1     13     35
      1     12     35
      1     12     36
      1     12     37
      1     12     38
      1     12     39
      1     12     40
      1     11     40
      1     11     41
      1     11     42
      1     11     43
      1     11     44
      1     10     44
      1     10     45
     31 OF THE     31 CELLS USED TO SIMULATE THE GAIN OR LOSS ARE
                      AFFECTED.

 OBS#     11, ID no_rivf9    , TIME STEP     1
    LAYER   ROW  COLUMN
      1     20     25
      1     20     25
      1     20     24
      1     19     24
      1     19     23
      1     18     23
      1     18     22
      1     17     22
      1     16     22
      1     16     21
      1     15     21
      1     14     21
      1     14     20
      1     13     20
      1     12     20
      1     12     19
      1     12     18
      1     11     18
     18 OF THE     18 CELLS USED TO SIMULATE THE GAIN OR LOSS ARE
                      AFFECTED.

 OBS#     12, ID no_rivf10   , TIME STEP     1
    LAYER   ROW  COLUMN
      1     28     25
      1     27     25
      1     26     25
      1     25     25
      1     25     24
      1     24     24
      1     23     24
      1     22     24
      1     22     25
      1     21     25
      1     20     25
     11 OF THE     32 CELLS USED TO SIMULATE THE GAIN OR LOSS ARE
                      AFFECTED.

 DATA FOR FLOWS REPRESENTED USING THE DRAIN PACKAGE

       OBSERVATION      MEAS.      CALC.                          WEIGHTED
  OBS#    NAME          FLOW       FLOW     RESIDUAL  WEIGHT**.5  RESIDUAL

     1 no_drnf0        1.00     -0.338E+04  0.338E+04  0.100E-17  0.338E-14

 STATISTICS FOR DRAIN FLOW RESIDUALS :
 MAXIMUM WEIGHTED RESIDUAL  : 0.338E-14 OBS#      1
 MINIMUM WEIGHTED RESIDUAL  : 0.338E-14 OBS#      1
 AVERAGE WEIGHTED RESIDUAL  : 0.338E-14
 # RESIDUALS >= 0. :      1
 # RESIDUALS < 0.  :      0
 NUMBER OF RUNS:      1  IN      1 OBSERVATIONS

 SUM OF SQUARED WEIGHTED RESIDUALS (DRAIN FLOWS ONLY)  0.11450E-28

 DATA FOR FLOWS REPRESENTED USING THE RIVER PACKAGE

        OBSERVATION      MEAS.      CALC.                          WEIGHTED
   OBS#    NAME          FLOW       FLOW     RESIDUAL  WEIGHT**.5  RESIDUAL

      2 no_rivf0        1.00       12.4      -11.4      0.100E-17 -0.114E-16
      3 no_rivf1        1.00       47.0      -46.0      0.100E-17 -0.460E-16
      4 no_rivf2        1.00      -3.33       4.33      0.100E-17  0.433E-17
      5 no_rivf3        1.00      -31.5       32.5      0.100E-17  0.325E-16
      6 no_rivf4        1.00       19.8      -18.8      0.100E-17 -0.188E-16
      7 no_rivf5        1.00      -13.5       14.5      0.100E-17  0.145E-16
      8 no_rivf6        1.00      -56.4       57.4      0.100E-17  0.574E-16
      9 no_rivf7        1.00       14.5      -13.5      0.100E-17 -0.135E-16
     10 no_rivf8        1.00       24.7      -23.7      0.100E-17 -0.237E-16
     11 no_rivf9        1.00       12.5      -11.5      0.100E-17 -0.115E-16
     12 no_rivf10       1.00       13.7      -12.7      0.100E-17 -0.127E-16

 STATISTICS FOR RIVER FLOW RESIDUALS :
 MAXIMUM WEIGHTED RESIDUAL  : 0.574E-16 OBS#      8
 MINIMUM WEIGHTED RESIDUAL  :-0.460E-16 OBS#      3
 AVERAGE WEIGHTED RESIDUAL  :-0.262E-17
 # RESIDUALS >= 0. :      4
 # RESIDUALS < 0.  :      7
 NUMBER OF RUNS:      5  IN     11 OBSERVATIONS

 SUM OF SQUARED WEIGHTED RESIDUALS (RIVER FLOWS ONLY)  0.82133E-32

 SUM OF SQUARED WEIGHTED RESIDUALS (ALL DEPENDENT VARIABLES)  0.11458E-28

 STATISTICS FOR ALL RESIDUALS :
 AVERAGE WEIGHTED RESIDUAL  : 0.280E-15
 # RESIDUALS >= 0. :      5
 # RESIDUALS < 0.  :      7
 NUMBER OF RUNS  :    6  IN   12 OBSERVATIONS

 INTERPRETING THE CALCULATED RUNS STATISTIC VALUE OF    -0.208    
 NOTE: THE FOLLOWING APPLIES ONLY IF 
        # RESIDUALS >= 0 . IS GREATER THAN 10 AND 
        # RESIDUALS < 0.   IS GREATER THAN 10
 THE NEGATIVE VALUE MAY INDICATE TOO FEW RUNS:
    IF THE VALUE IS LESS THAN -1.28, THERE IS LESS THAN A 10 PERCENT
       CHANCE THE VALUES ARE RANDOM,
    IF THE VALUE IS LESS THAN -1.645, THERE IS LESS THAN A 5 PERCENT
       CHANCE THE VALUES ARE RANDOM,
    IF THE VALUE IS LESS THAN -1.96, THERE IS LESS THAN A 2.5 PERCENT
       CHANCE THE VALUES ARE RANDOM.


 ORDERED DEPENDENT-VARIABLE WEIGHTED RESIDUALS
 NUMBER OF RESIDUALS INCLUDED:        12
    -0.460E-16 -0.237E-16 -0.188E-16 -0.135E-16 -0.127E-16 -0.115E-16 -0.114E-16
     0.433E-17  0.145E-16  0.325E-16  0.574E-16  0.338E-14

 CORRELATION BETWEEN ORDERED WEIGHTED RESIDUALS AND NORMAL ORDER STATISTICS
 FOR OBSERVATIONS =    0.327    

 --------------------------------------------------------------------------
 COMMENTS ON THE INTERPRETATION OF THE CORRELATION BETWEEN
 WEIGHTED RESIDUALS AND NORMAL ORDER STATISTICS:

 Generally, IF the reported CORRELATION is LESS than the critical value,
 at the selected significance level (usually 5 or 10%), the hypothesis
 that the weighted residuals are INDEPENDENT AND NORMALLY DISTRIBUTED
 would be REJECTED.  HOWEVER, in this case, conditions are outside of
 the range of published critical values as discussed below.

 The sum of the number of observations and prior information items is    12
 which is less than 35, the minimum value for which critical values are
 published.  Therefore, the critical values for the 5 and 10% significance
 levels are less than 0.943 and 0.952, respectively.

 CORRELATIONS GREATER than these critical values indicate that, probably, the 
 weighted residuals ARE INDEPENDENT AND NORMALLY DISTRIBUTED.

 Correlations LESS than these critical values MAY BE ACCEPTABLE, and
 rejection of the hypothesis is not necessarily warranted.

 The Kolmogorov-Smirnov test can be used to further evaluate the residuals.
 --------------------------------------------------------------------------

