                                  MODFLOW-2000
      U.S. GEOLOGICAL SURVEY MODULAR FINITE-DIFFERENCE GROUND-WATER FLOW MODEL
                           VERSION 1.19.01 03/25/2010


 This model run produced both GLOBAL and LIST files.  This is the LIST file.


 # BAS6 package for MODFLOW-2000 generated by Flopy 3.9.3                        
 THE FREE FORMAT OPTION HAS BEEN SELECTED
    1 LAYERS       100 ROWS       128 COLUMNS
    1 STRESS PERIOD(S) IN SIMULATION

 BAS6 -- BASIC PACKAGE, VERSION 6, 1/11/2000 INPUT READ FROM UNIT  703
          5 ELEMENTS IN IR ARRAY ARE USED BY BAS

 WEL6 -- WELL PACKAGE, VERSION 6, 1/11/2000 INPUT READ FROM UNIT  709
 # WEL package for MODFLOW-2000 generated by Flopy 3.9.3
 No named parameters
 MAXIMUM OF      3 ACTIVE WELLS AT ONE TIME
 CELL-BY-CELL FLOWS WILL BE SAVED ON UNIT  740
 AUXILIARY WELL VARIABLE: IFACE           
 AUXILIARY WELL VARIABLE: QFACT           
 AUXILIARY WELL VARIABLE: CELLGRP         
         21 ELEMENTS IN RX ARRAY ARE USED BY WEL

 RIV6 -- RIVER PACKAGE, VERSION 6, 1/11/2000 INPUT READ FROM UNIT  708
 # RIV package for MODFLOW-2000 generated by Flopy 3.9.3
 No named parameters
 MAXIMUM OF    163 ACTIVE RIVER REACHES AT ONE TIME
 CELL-BY-CELL FLOWS WILL BE SAVED ON UNIT  740
 AUXILIARY RIVER VARIABLE: IFACE           
 AUXILIARY RIVER VARIABLE: CONDFACT        
 AUXILIARY RIVER VARIABLE: CELLGRP         
       1467 ELEMENTS IN RX ARRAY ARE USED BY RIV

 GHB6 -- GHB PACKAGE, VERSION 6, 1/11/2000 INPUT READ FROM UNIT  711
 # GHB package for MODFLOW-2000 generated by Flopy 3.9.3
 No named parameters
 MAXIMUM OF    851 ACTIVE GHB CELLS AT ONE TIME
 CELL-BY-CELL FLOWS WILL BE SAVED ON UNIT  740
 AUXILIARY GHB VARIABLE: IFACE           
 AUXILIARY GHB VARIABLE: CONDFACT        
 AUXILIARY GHB VARIABLE: CELLGRP         
       6808 ELEMENTS IN RX ARRAY ARE USED BY GHB

 RCH6 -- RECHARGE PACKAGE, VERSION 6, 1/11/2000 INPUT READ FROM UNIT  716
 # RCH package for MODFLOW-2000 generated by Flopy 3.9.3
 No named parameters
 OPTION 3 -- RECHARGE TO HIGHEST ACTIVE NODE IN EACH VERTICAL COLUMN
 CELL-BY-CELL FLOWS WILL BE SAVED ON UNIT  740
      12800 ELEMENTS IN RX ARRAY ARE USED BY RCH
      12800 ELEMENTS IN IR ARRAY ARE USED BY RCH

      21096  ELEMENTS OF RX ARRAY USED OUT OF      21096
          0  ELEMENTS OF RZ ARRAY USED OUT OF          1
      12805  ELEMENTS OF IR ARRAY USED OUT OF      12805
1
 # BAS6 package for MODFLOW-2000 generated by Flopy 3.9.3                        
                                                                                 



                     BOUNDARY ARRAY FOR LAYER   1
 READING ON UNIT  703 WITH FORMAT: (FREE)              

 AQUIFER HEAD WILL BE SET TO -999.00     AT ALL NO-FLOW NODES (IBOUND=0).



                       INITIAL HEAD FOR LAYER   1
 READING ON UNIT  703 WITH FORMAT: (FREE)              
 # OC package for MODFLOW-2000 generated by Flopy 3.9.3

 OUTPUT CONTROL IS SPECIFIED ONLY AT TIME STEPS FOR WHICH OUTPUT IS DESIRED
 COMPACT CELL-BY-CELL BUDGET FILES WILL BE WRITTEN
 AUXILIARY DATA WILL BE SAVED IN CELL-BY-CELL BUDGET FILES
 HEAD PRINT FORMAT CODE IS   0    DRAWDOWN PRINT FORMAT CODE IS   0
 HEADS WILL BE SAVED ON UNIT  730    DRAWDOWNS WILL BE SAVED ON UNIT    0
1
                            STRESS PERIOD NO.    1, LENGTH =   1.000000    
                            -----------------------------------------------

                              NUMBER OF TIME STEPS =     1

                               MULTIPLIER FOR DELT =     1.000

                            INITIAL TIME STEP SIZE =   1.000000    

 WELL NO.  LAYER   ROW   COL   STRESS RATE         IFACE           QFACT           CELLGRP         
 --------------------------------------------------------------------------------------------------
      1      1     35     34      -4000.           0.000           1.000           1.000    
      2      1     28     65      -3000.           0.000           1.000           2.000    
      3      1     68     88      -2500.           0.000           1.000           3.000    

      3 WELLS

 REACH NO.  LAYER   ROW   COL     STAGE      CONDUCTANCE     BOTTOM EL.         IFACE           CONDFACT        CELLGRP         
 -------------------------------------------------------------------------------------------------------------------------------
      1      1     56    100       110.0          0.2387           106.9           6.000           9.547           1.000    
      2      1     56    101       110.0          0.8731           106.7           6.000           34.92           1.000    
      3      1     56    102       110.0          0.8192           106.3           6.000           32.77           1.000    
      4      1     55    102       110.0          0.1490           106.1           6.000           5.961           1.000    
      5      1     55    103       110.0           1.011           105.8           6.000           40.43           1.000    
      6      1     55    104       110.0           1.011           105.3           6.000           40.43           1.000    
      7      1     55    105       110.0           1.053           104.9           6.000           42.13           1.000    
      8      1     54    105       110.0          0.1794E-01       104.6           6.000          0.7176           1.000    
      9      1     54    106       110.0           1.132           104.4           6.000           45.27           1.000    
     10      1     54    107       110.0          0.5434           104.0           6.000           21.74           1.000    
     11      1     53    107       110.0          0.5884           103.7           6.000           23.54           1.000    
     12      1     53    108       110.0           1.105           103.3           6.000           44.19           1.000    
     13      1     52    108       110.0          0.2709E-01       103.1           6.000           1.084           1.000    
     14      1     52    109       110.0           1.117           102.8           6.000           44.67           1.000    
     15      1     52    110       110.0          0.6410           102.4           6.000           25.64           1.000    
     16      1     51    110       110.0          0.4698           102.1           6.000           18.79           1.000    
     17      1     51    111       110.0           1.111           101.8           6.000           44.43           1.000    
     18      1     51    112       110.0          0.2274           101.5           6.000           9.096           1.000    
     19      1     50    112       110.0          0.8791           101.2           6.000           35.16           1.000    
     20      1     50    113       110.0           1.075           100.8           6.000           43.00           1.000    
     21      1     50    114       110.0          0.2352E-01       100.5           6.000          0.9407           1.000    
     22      1     49    114       110.0           1.057           100.3           6.000           42.28           1.000    
     23      1     49    115       110.0          0.6402           99.87           6.000           25.61           1.000    
     24      1     50    115       110.0          0.4826           99.61           6.000           19.30           1.000    
     25      1     50    116       110.0           1.148           99.23           6.000           45.94           1.000    
     26      1     51    116       110.0          0.3715E-01       98.96           6.000           1.486           1.000    
     27      1     51    117       110.0          0.9841           98.72           6.000           39.36           1.000    
     28      1     52    117       110.0          0.6435           98.35           6.000           25.74           1.000    
     29      1     52    118       110.0           1.009           97.97           6.000           40.36           1.000    
     30      1     52    119       110.0           1.156           97.47           6.000           46.25           1.000    
     31      1     13     81       118.0          0.1678E-01       115.0           6.000          0.6711           2.000    
     32      1     13     82       118.0          0.2054           115.0           6.000           8.215           2.000    
     33      1     14     82       117.9          0.4702           114.9           6.000           18.81           2.000    
     34      1     14     83       117.7          0.6141           114.7           6.000           24.57           2.000    
     35      1     14     84       117.6          0.1730           114.6           6.000           6.919           2.000    
     36      1     15     84       117.5          0.5043           114.5           6.000           20.17           2.000    
     37      1     15     85       117.4          0.4579           114.4           6.000           18.32           2.000    
     38      1     16     85       117.2          0.7346           114.2           6.000           29.38           2.000    
     39      1     16     86       117.1          0.8271E-01       114.1           6.000           3.309           2.000    
     40      1     17     86       117.1          0.1575E-01       114.1           6.000          0.6300           2.000    
     41      1     17     85       117.0          0.7337           114.0           6.000           29.35           2.000    
     42      1     18     85       116.8          0.3504           113.8           6.000           14.01           2.000    
     43      1     18     84       116.7          0.3342           113.7           6.000           13.37           2.000    
     44      1     19     84       116.6          0.5630           113.6           6.000           22.52           2.000    
     45      1     19     83       116.5          0.9885E-01       113.5           6.000           3.954           2.000    
     46      1     20     83       116.4          0.6017           113.4           6.000           24.07           2.000    
     47      1     21     83       116.3          0.1852           113.3           6.000           7.409           2.000    
     48      1     21     82       116.2          0.3617           113.2           6.000           14.47           2.000    
     49      1     22     82       116.1          0.4972           113.1           6.000           19.89           2.000    
     50      1     23     82       116.0          0.1153           113.0           6.000           4.613           2.000    
     51      1     23     81       116.0          0.3367           113.0           6.000           13.47           2.000    
     52      1     24     81       115.9          0.4109           112.9           6.000           16.44           2.000    
     53      1     25     81       115.8          0.3241           112.8           6.000           12.96           2.000    
     54      1     25     80       115.7          0.4949E-01       112.7           6.000           1.980           2.000    
     55      1     26     80       115.6          0.3365           112.6           6.000           13.46           2.000    
     56      1     27     80       115.6          0.2889           112.6           6.000           11.56           2.000    
     57      1     28     80       115.5          0.2627           112.5           6.000           10.51           2.000    
     58      1     29     80       115.4          0.2889           112.4           6.000           11.56           2.000    
     59      1     30     80       115.3          0.2123           112.3           6.000           8.493           2.000    
     60      1     30     79       115.3          0.8772E-01       112.3           6.000           3.509           2.000    
     61      1     31     79       115.2          0.3000           112.2           6.000           12.00           2.000    
     62      1     32     79       115.2          0.3000           112.2           6.000           12.00           2.000    
     63      1     33     79       115.1          0.3000           112.1           6.000           12.00           2.000    
     64      1     34     79       115.0          0.2889           112.0           6.000           11.56           2.000    
     65      1     35     79       114.9          0.2627           111.9           6.000           10.51           2.000    
     66      1     36     79       114.9          0.6288E-01       111.9           6.000           2.515           2.000    
     67      1     36     78       114.8          0.2261           111.8           6.000           9.043           2.000    
     68      1     37     78       114.7          0.3178           111.7           6.000           12.71           2.000    
     69      1     38     78       114.7          0.3496           111.7           6.000           13.99           2.000    
     70      1     39     78       114.6          0.3722           111.6           6.000           14.89           2.000    
     71      1     40     78       114.4          0.4076           111.4           6.000           16.30           2.000    
     72      1     41     78       114.3          0.4483           111.3           6.000           17.93           2.000    
     73      1     42     78       114.2          0.4932           111.2           6.000           19.73           2.000    
     74      1     43     78       114.1          0.1826           111.1           6.000           7.302           2.000    
     75      1     43     79       114.0          0.3599           111.0           6.000           14.40           2.000    
     76      1     44     79       113.9          0.5967           110.9           6.000           23.87           2.000    
     77      1     45     79       113.7          0.6564           110.7           6.000           26.26           2.000    
     78      1     46     79       113.5          0.5169           110.5           6.000           20.68           2.000    
     79      1     46     80       113.4          0.3277           110.4           6.000           13.11           2.000    
     80      1     47     80       113.3          0.5258           110.3           6.000           21.03           2.000    
     81      1     47     81       113.2          0.4342           110.2           6.000           17.37           2.000    
     82      1     48     81       113.1          0.4112           110.1           6.000           16.45           2.000    
     83      1     48     82       112.9          0.5974           109.9           6.000           23.90           2.000    
     84      1     49     82       112.8          0.1711           109.8           6.000           6.844           2.000    
     85      1     49     83       112.7          0.5694           109.7           6.000           22.78           2.000    
     86      1     49     84       112.6          0.4490           109.6           6.000           17.96           2.000    
     87      1     50     84       112.5          0.2772E-01       109.5           6.000           1.109           2.000    
     88      1     50     85       112.4          0.4334           109.4           6.000           17.34           2.000    
     89      1     50     86       112.3          0.3940           109.3           6.000           15.76           2.000    
     90      1     50     87       112.2          0.3582           109.2           6.000           14.33           2.000    
     91      1     50     88       112.1          0.7306E-01       109.1           6.000           2.922           2.000    
     92      1     51     88       112.1          0.2526           109.1           6.000           10.10           2.000    
     93      1     51     89       112.0          0.3582           109.0           6.000           14.33           2.000    
     94      1     51     90       111.9          0.3940           108.9           6.000           15.76           2.000    
     95      1     51     91       111.8          0.3041           108.8           6.000           12.16           2.000    
     96      1     52     91       111.8          0.1067           108.8           6.000           4.267           2.000    
     97      1     52     92       111.7          0.4411           108.7           6.000           17.64           2.000    
     98      1     52     93       111.6          0.4852           108.6           6.000           19.41           2.000    
     99      1     52     94       111.4          0.4444           108.4           6.000           17.78           2.000    
    100      1     53     94       111.3          0.8926E-01       108.3           6.000           3.571           2.000    
    101      1     53     95       111.3          0.5871           108.3           6.000           23.48           2.000    
    102      1     53     96       111.1          0.6423           108.1           6.000           25.69           2.000    
    103      1     53     97       111.0          0.2717           108.0           6.000           10.87           2.000    
    104      1     54     97       110.9          0.3567           107.9           6.000           14.27           2.000    
    105      1     54     98       110.7          0.6913           107.7           6.000           27.65           2.000    
    106      1     54     99       110.5          0.7623           107.5           6.000           30.49           2.000    
    107      1     54    100       110.4          0.2106           107.4           6.000           8.424           2.000    
    108      1     55    100       110.2          0.8903           107.2           6.000           35.61           2.000    
    109      1     56    100       110.0          0.3514           107.0           6.000           14.05           2.000    
    110      1     59     54       120.0          0.1827           117.0           6.000           7.308           3.000    
    111      1     59     55       119.7          0.7091           116.7           6.000           28.36           3.000    
    112      1     58     55       119.6          0.5691E-01       116.6           6.000           2.276           3.000    
    113      1     58     56       119.4          0.6964           116.4           6.000           27.86           3.000    
    114      1     58     57       119.1          0.4494           116.1           6.000           17.98           3.000    
    115      1     57     57       119.0          0.1929           116.0           6.000           7.717           3.000    
    116      1     57     58       118.8          0.5849           115.8           6.000           23.39           3.000    
    117      1     57     59       118.5          0.5113           115.5           6.000           20.45           3.000    
    118      1     56     59       118.4          0.2039E-01       115.4           6.000          0.8155           3.000    
    119      1     56     60       118.3          0.4834           115.3           6.000           19.33           3.000    
    120      1     56     61       118.0          0.4244           115.0           6.000           16.97           3.000    
    121      1     56     62       117.9          0.3660           114.9           6.000           14.64           3.000    
    122      1     56     63       117.7          0.3327           114.7           6.000           13.31           3.000    

 FILE UNIT  708 : ERROR CONVERTING "117.6050.00616674" TO A REAL NUMBER IN LINE:
          1        56        64   117.6050.00616674   114.605         6   0.24667         3                                                                                                              
