                                  MODFLOW-2000
      U.S. GEOLOGICAL SURVEY MODULAR FINITE-DIFFERENCE GROUND-WATER FLOW MODEL
                           VERSION 1.19.01 03/25/2010


 This model run produced both GLOBAL and LIST files.  This is the LIST file.


 # BAS6 package for MODFLOW-2000 generated by Flopy 3.9.3                        
 THE FREE FORMAT OPTION HAS BEEN SELECTED
    1 LAYERS       100 ROWS       128 COLUMNS
    1 STRESS PERIOD(S) IN SIMULATION

 BAS6 -- BASIC PACKAGE, VERSION 6, 1/11/2000 INPUT READ FROM UNIT  703
          5 ELEMENTS IN IR ARRAY ARE USED BY BAS

 WEL6 -- WELL PACKAGE, VERSION 6, 1/11/2000 INPUT READ FROM UNIT  709
 # WEL package for MODFLOW-2000 generated by Flopy 3.9.3
 No named parameters
 MAXIMUM OF      3 ACTIVE WELLS AT ONE TIME
 CELL-BY-CELL FLOWS WILL BE SAVED ON UNIT  740
 AUXILIARY WELL VARIABLE: IFACE           
 AUXILIARY WELL VARIABLE: QFACT           
 AUXILIARY WELL VARIABLE: CELLGRP         
         21 ELEMENTS IN RX ARRAY ARE USED BY WEL

 RIV6 -- RIVER PACKAGE, VERSION 6, 1/11/2000 INPUT READ FROM UNIT  708
 # RIV package for MODFLOW-2000 generated by Flopy 3.9.3
 No named parameters
 MAXIMUM OF    163 ACTIVE RIVER REACHES AT ONE TIME
 CELL-BY-CELL FLOWS WILL BE SAVED ON UNIT  740
 AUXILIARY RIVER VARIABLE: IFACE           
 AUXILIARY RIVER VARIABLE: CONDFACT        
 AUXILIARY RIVER VARIABLE: CELLGRP         
       1467 ELEMENTS IN RX ARRAY ARE USED BY RIV

 GHB6 -- GHB PACKAGE, VERSION 6, 1/11/2000 INPUT READ FROM UNIT  711
 # GHB package for MODFLOW-2000 generated by Flopy 3.9.3
 No named parameters
 MAXIMUM OF    851 ACTIVE GHB CELLS AT ONE TIME
 CELL-BY-CELL FLOWS WILL BE SAVED ON UNIT  740
 AUXILIARY GHB VARIABLE: IFACE           
 AUXILIARY GHB VARIABLE: CONDFACT        
 AUXILIARY GHB VARIABLE: CELLGRP         
       6808 ELEMENTS IN RX ARRAY ARE USED BY GHB

 RCH6 -- RECHARGE PACKAGE, VERSION 6, 1/11/2000 INPUT READ FROM UNIT  716
 # RCH package for MODFLOW-2000 generated by Flopy 3.9.3
 No named parameters
 OPTION 3 -- RECHARGE TO HIGHEST ACTIVE NODE IN EACH VERTICAL COLUMN
 CELL-BY-CELL FLOWS WILL BE SAVED ON UNIT  740
      12800 ELEMENTS IN RX ARRAY ARE USED BY RCH
      12800 ELEMENTS IN IR ARRAY ARE USED BY RCH

      21096  ELEMENTS OF RX ARRAY USED OUT OF      21096
          0  ELEMENTS OF RZ ARRAY USED OUT OF          1
      12805  ELEMENTS OF IR ARRAY USED OUT OF      12805
1
 # BAS6 package for MODFLOW-2000 generated by Flopy 3.9.3                        
                                                                                 



                     BOUNDARY ARRAY FOR LAYER   1
 READING ON UNIT  703 WITH FORMAT: (FREE)              

 AQUIFER HEAD WILL BE SET TO -999.00     AT ALL NO-FLOW NODES (IBOUND=0).



                       INITIAL HEAD FOR LAYER   1
 READING ON UNIT  703 WITH FORMAT: (FREE)              
 # OC package for MODFLOW-2000 generated by Flopy 3.9.3

 OUTPUT CONTROL IS SPECIFIED ONLY AT TIME STEPS FOR WHICH OUTPUT IS DESIRED
 COMPACT CELL-BY-CELL BUDGET FILES WILL BE WRITTEN
 AUXILIARY DATA WILL BE SAVED IN CELL-BY-CELL BUDGET FILES
 HEAD PRINT FORMAT CODE IS   0    DRAWDOWN PRINT FORMAT CODE IS   0
 HEADS WILL BE SAVED ON UNIT  730    DRAWDOWNS WILL BE SAVED ON UNIT    0
1
                            STRESS PERIOD NO.    1, LENGTH =   1.000000    
                            -----------------------------------------------

                              NUMBER OF TIME STEPS =     1

                               MULTIPLIER FOR DELT =     1.000

                            INITIAL TIME STEP SIZE =   1.000000    

 WELL NO.  LAYER   ROW   COL   STRESS RATE         IFACE           QFACT           CELLGRP         
 --------------------------------------------------------------------------------------------------
      1      1     35     34      -4000.           0.000           1.000           1.000    
      2      1     28     65      -3000.           0.000           1.000           2.000    
      3      1     68     88      -2500.           0.000           1.000           3.000    

      3 WELLS

 REACH NO.  LAYER   ROW   COL     STAGE      CONDUCTANCE     BOTTOM EL.         IFACE           CONDFACT        CELLGRP         
 -------------------------------------------------------------------------------------------------------------------------------
      1      1     56    100       110.0          0.2387           106.9           6.000           9.547           1.000    
      2      1     56    101       110.0          0.8731           106.7           6.000           34.92           1.000    
      3      1     56    102       110.0          0.8192           106.3           6.000           32.77           1.000    
      4      1     55    102       110.0          0.1490           106.1           6.000           5.961           1.000    
      5      1     55    103       110.0           1.011           105.8           6.000           40.43           1.000    
      6      1     55    104       110.0           1.011           105.3           6.000           40.43           1.000    
      7      1     55    105       110.0           1.053           104.9           6.000           42.13           1.000    
      8      1     54    105       110.0          0.1794E-01       104.6           6.000          0.7176           1.000    
      9      1     54    106       110.0           1.132           104.4           6.000           45.27           1.000    
     10      1     54    107       110.0          0.5434           104.0           6.000           21.74           1.000    
     11      1     53    107       110.0          0.5884           103.7           6.000           23.54           1.000    
     12      1     53    108       110.0           1.105           103.3           6.000           44.19           1.000    
     13      1     52    108       110.0          0.2709E-01       103.1           6.000           1.084           1.000    
     14      1     52    109       110.0           1.117           102.8           6.000           44.67           1.000    
     15      1     52    110       110.0          0.6410           102.4           6.000           25.64           1.000    
     16      1     51    110       110.0          0.4698           102.1           6.000           18.79           1.000    
     17      1     51    111       110.0           1.111           101.8           6.000           44.43           1.000    
     18      1     51    112       110.0          0.2274           101.5           6.000           9.096           1.000    
     19      1     50    112       110.0          0.8791           101.2           6.000           35.16           1.000    
     20      1     50    113       110.0           1.075           100.8           6.000           43.00           1.000    
     21      1     50    114       110.0          0.2352E-01       100.5           6.000          0.9407           1.000    
     22      1     49    114       110.0           1.057           100.3           6.000           42.28           1.000    
     23      1     49    115       110.0          0.6402           99.87           6.000           25.61           1.000    
     24      1     50    115       110.0          0.4826           99.61           6.000           19.30           1.000    
     25      1     50    116       110.0           1.148           99.23           6.000           45.94           1.000    
     26      1     51    116       110.0          0.3715E-01       98.96           6.000           1.486           1.000    
     27      1     51    117       110.0          0.9841           98.72           6.000           39.36           1.000    
     28      1     52    117       110.0          0.6435           98.35           6.000           25.74           1.000    
     29      1     52    118       110.0           1.009           97.97           6.000           40.36           1.000    
     30      1     52    119       110.0           1.156           97.47           6.000           46.25           1.000    
     31      1     13     81       118.0          0.1678E-01       115.0           6.000          0.6711           2.000    
     32      1     13     82       118.0          0.2054           115.0           6.000           8.215           2.000    
     33      1     14     82       117.9          0.4702           114.9           6.000           18.81           2.000    
     34      1     14     83       117.7          0.6141           114.7           6.000           24.57           2.000    
     35      1     14     84       117.6          0.1730           114.6           6.000           6.919           2.000    
     36      1     15     84       117.5          0.5043           114.5           6.000           20.17           2.000    
     37      1     15     85       117.4          0.4579           114.4           6.000           18.32           2.000    
     38      1     16     85       117.2          0.7346           114.2           6.000           29.38           2.000    
     39      1     16     86       117.1          0.8271E-01       114.1           6.000           3.309           2.000    
     40      1     17     86       117.1          0.1575E-01       114.1           6.000          0.6300           2.000    
     41      1     17     85       117.0          0.7337           114.0           6.000           29.35           2.000    
     42      1     18     85       116.8          0.3504           113.8           6.000           14.01           2.000    
     43      1     18     84       116.7          0.3342           113.7           6.000           13.37           2.000    
     44      1     19     84       116.6          0.5630           113.6           6.000           22.52           2.000    
     45      1     19     83       116.5          0.9885E-01       113.5           6.000           3.954           2.000    
     46      1     20     83       116.4          0.6017           113.4           6.000           24.07           2.000    
     47      1     21     83       116.3          0.1852           113.3           6.000           7.409           2.000    
     48      1     21     82       116.2          0.3617           113.2           6.000           14.47           2.000    
     49      1     22     82       116.1          0.4972           113.1           6.000           19.89           2.000    
     50      1     23     82       116.0          0.1153           113.0           6.000           4.613           2.000    
     51      1     23     81       116.0          0.3367           113.0           6.000           13.47           2.000    
     52      1     24     81       115.9          0.4109           112.9           6.000           16.44           2.000    
     53      1     25     81       115.8          0.3241           112.8           6.000           12.96           2.000    
     54      1     25     80       115.7          0.4949E-01       112.7           6.000           1.980           2.000    
     55      1     26     80       115.6          0.3365           112.6           6.000           13.46           2.000    
     56      1     27     80       115.6          0.2889           112.6           6.000           11.56           2.000    
     57      1     28     80       115.5          0.2627           112.5           6.000           10.51           2.000    
     58      1     29     80       115.4          0.2889           112.4           6.000           11.56           2.000    
     59      1     30     80       115.3          0.2123           112.3           6.000           8.493           2.000    
     60      1     30     79       115.3          0.8772E-01       112.3           6.000           3.509           2.000    
     61      1     31     79       115.2          0.3000           112.2           6.000           12.00           2.000    
     62      1     32     79       115.2          0.3000           112.2           6.000           12.00           2.000    
     63      1     33     79       115.1          0.3000           112.1           6.000           12.00           2.000    
     64      1     34     79       115.0          0.2889           112.0           6.000           11.56           2.000    
     65      1     35     79       114.9          0.2627           111.9           6.000           10.51           2.000    
     66      1     36     79       114.9          0.6288E-01       111.9           6.000           2.515           2.000    
     67      1     36     78       114.8          0.2261           111.8           6.000           9.043           2.000    
     68      1     37     78       114.7          0.3178           111.7           6.000           12.71           2.000    
     69      1     38     78       114.7          0.3496           111.7           6.000           13.99           2.000    
     70      1     39     78       114.6          0.3722           111.6           6.000           14.89           2.000    
     71      1     40     78       114.4          0.4076           111.4           6.000           16.30           2.000    
     72      1     41     78       114.3          0.4483           111.3           6.000           17.93           2.000    
     73      1     42     78       114.2          0.4932           111.2           6.000           19.73           2.000    
     74      1     43     78       114.1          0.1826           111.1           6.000           7.302           2.000    
     75      1     43     79       114.0          0.3599           111.0           6.000           14.40           2.000    
     76      1     44     79       113.9          0.5967           110.9           6.000           23.87           2.000    
     77      1     45     79       113.7          0.6564           110.7           6.000           26.26           2.000    
     78      1     46     79       113.5          0.5169           110.5           6.000           20.68           2.000    
     79      1     46     80       113.4          0.3277           110.4           6.000           13.11           2.000    
     80      1     47     80       113.3          0.5258           110.3           6.000           21.03           2.000    
     81      1     47     81       113.2          0.4342           110.2           6.000           17.37           2.000    
     82      1     48     81       113.1          0.4112           110.1           6.000           16.45           2.000    
     83      1     48     82       112.9          0.5974           109.9           6.000           23.90           2.000    
     84      1     49     82       112.8          0.1711           109.8           6.000           6.844           2.000    
     85      1     49     83       112.7          0.5694           109.7           6.000           22.78           2.000    
     86      1     49     84       112.6          0.4490           109.6           6.000           17.96           2.000    
     87      1     50     84       112.5          0.2772E-01       109.5           6.000           1.109           2.000    
     88      1     50     85       112.4          0.4334           109.4           6.000           17.34           2.000    
     89      1     50     86       112.3          0.3940           109.3           6.000           15.76           2.000    
     90      1     50     87       112.2          0.3582           109.2           6.000           14.33           2.000    
     91      1     50     88       112.1          0.7306E-01       109.1           6.000           2.922           2.000    
     92      1     51     88       112.1          0.2526           109.1           6.000           10.10           2.000    
     93      1     51     89       112.0          0.3582           109.0           6.000           14.33           2.000    
     94      1     51     90       111.9          0.3940           108.9           6.000           15.76           2.000    
     95      1     51     91       111.8          0.3041           108.8           6.000           12.16           2.000    
     96      1     52     91       111.8          0.1067           108.8           6.000           4.267           2.000    
     97      1     52     92       111.7          0.4411           108.7           6.000           17.64           2.000    
     98      1     52     93       111.6          0.4852           108.6           6.000           19.41           2.000    
     99      1     52     94       111.4          0.4444           108.4           6.000           17.78           2.000    
    100      1     53     94       111.3          0.8926E-01       108.3           6.000           3.571           2.000    
    101      1     53     95       111.3          0.5871           108.3           6.000           23.48           2.000    
    102      1     53     96       111.1          0.6423           108.1           6.000           25.69           2.000    
    103      1     53     97       111.0          0.2717           108.0           6.000           10.87           2.000    
    104      1     54     97       110.9          0.3567           107.9           6.000           14.27           2.000    
    105      1     54     98       110.7          0.6913           107.7           6.000           27.65           2.000    
    106      1     54     99       110.5          0.7623           107.5           6.000           30.49           2.000    
    107      1     54    100       110.4          0.2106           107.4           6.000           8.424           2.000    
    108      1     55    100       110.2          0.8903           107.2           6.000           35.61           2.000    
    109      1     56    100       110.0          0.3514           107.0           6.000           14.05           2.000    
    110      1     59     54       120.0          0.1827           117.0           6.000           7.308           3.000    
    111      1     59     55       119.7          0.7091           116.7           6.000           28.36           3.000    
    112      1     58     55       119.6          0.5691E-01       116.6           6.000           2.276           3.000    
    113      1     58     56       119.4          0.6964           116.4           6.000           27.86           3.000    
    114      1     58     57       119.1          0.4494           116.1           6.000           17.98           3.000    
    115      1     57     57       119.0          0.1929           116.0           6.000           7.717           3.000    
    116      1     57     58       118.8          0.5849           115.8           6.000           23.39           3.000    
    117      1     57     59       118.5          0.5113           115.5           6.000           20.45           3.000    
    118      1     56     59       118.4          0.2039E-01       115.4           6.000          0.8155           3.000    
    119      1     56     60       118.3          0.4834           115.3           6.000           19.33           3.000    
    120      1     56     61       118.0          0.4244           115.0           6.000           16.97           3.000    
    121      1     56     62       117.9          0.3660           114.9           6.000           14.64           3.000    
    122      1     56     63       117.7          0.3327           114.7           6.000           13.31           3.000    
    123      1     56     64       117.6          0.6167E-02       114.6           6.000          0.2467           3.000    
    124      1     55     64       117.5          0.2963           114.5           6.000           11.85           3.000    
    125      1     55     65       117.4          0.2750           114.4           6.000           11.00           3.000    
    126      1     55     66       117.3          0.3025           114.3           6.000           12.10           3.000    
    127      1     55     67       117.1          0.3327           114.1           6.000           13.31           3.000    
    128      1     55     68       116.9          0.3660           113.9           6.000           14.64           3.000    
    129      1     55     69       116.8          0.4026           113.8           6.000           16.10           3.000    
    130      1     55     70       116.7          0.4018E-02       113.7           6.000          0.1607           3.000    
    131      1     54     70       116.6          0.4016           113.6           6.000           16.07           3.000    
    132      1     54     71       116.4          0.4455           113.4           6.000           17.82           3.000    
    133      1     54     72       116.1          0.4900           113.1           6.000           19.60           3.000    
    134      1     54     73       115.9          0.4947           112.9           6.000           19.79           3.000    
    135      1     54     74       115.7          0.4947           112.7           6.000           19.79           3.000    
    136      1     54     75       115.4          0.4947           112.4           6.000           19.79           3.000    
    137      1     54     76       115.2          0.4956           112.2           6.000           19.83           3.000    
    138      1     54     77       115.0          0.4995           112.0           6.000           19.98           3.000    
    139      1     54     78       114.7          0.4995           111.7           6.000           19.98           3.000    
    140      1     54     79       114.5          0.4995           111.5           6.000           19.98           3.000    
    141      1     54     80       114.3          0.3843           111.3           6.000           15.37           3.000    
    142      1     55     80       114.1          0.1152           111.1           6.000           4.607           3.000    
    143      1     55     81       114.0          0.4948           111.0           6.000           19.79           3.000    
    144      1     55     82       113.8          0.4498           110.8           6.000           17.99           3.000    
    145      1     55     83       113.6          0.4089           110.6           6.000           16.36           3.000    
    146      1     55     84       113.4          0.3724           110.4           6.000           14.89           3.000    
    147      1     55     85       113.2          0.3416           110.2           6.000           13.66           3.000    
    148      1     55     86       113.1          0.3105           110.1           6.000           12.42           3.000    
    149      1     55     87       112.9          0.2823           109.9           6.000           11.29           3.000    
    150      1     55     88       112.8          0.2566           109.8           6.000           10.26           3.000    
    151      1     55     89       112.7          0.2823           109.7           6.000           11.29           3.000    
    152      1     55     90       112.5          0.3105           109.5           6.000           12.42           3.000    
    153      1     55     91       112.4          0.3416           109.4           6.000           13.66           3.000    
    154      1     55     92       112.3          0.9082E-01       109.3           6.000           3.633           3.000    
    155      1     56     92       112.2          0.2849           109.2           6.000           11.40           3.000    
    156      1     56     93       112.0          0.4133           109.0           6.000           16.53           3.000    
    157      1     56     94       111.8          0.4546           108.8           6.000           18.18           3.000    
    158      1     56     95       111.6          0.4908           108.6           6.000           19.63           3.000    
    159      1     56     96       111.3          0.5359           108.3           6.000           21.44           3.000    
    160      1     56     97       111.1          0.5895           108.1           6.000           23.58           3.000    
    161      1     56     98       110.8          0.6485           107.8           6.000           25.94           3.000    
    162      1     56     99       110.4          0.7133           107.4           6.000           28.53           3.000    
    163      1     56    100       110.1          0.5487           107.1           6.000           21.95           3.000    

    163 RIVER REACHES

 BOUND. NO. LAYER   ROW   COL     STAGE      CONDUCTANCE         IFACE           CONDFACT        CELLGRP         
 ----------------------------------------------------------------------------------------------------------------
      1      1     75     20       120.0           3.317           6.000           132.7           1.000    
      2      1     74     20       120.0           9.064           6.000           362.5           1.000    
      3      1     73     20       120.0           11.73           6.000           469.1           1.000    
      4      1     72     20       120.0           11.74           6.000           469.6           1.000    
      5      1     71     20       120.0           9.583           6.000           383.3           1.000    
      6      1     70     20       120.0           7.807           6.000           312.3           1.000    
      7      1     69     20       120.0           6.350           6.000           254.0           1.000    
      8      1     68     20       120.0           4.661           6.000           186.4           1.000    
      9      1     67     20       120.0           3.103           6.000           124.1           1.000    
     10      1     66     20       120.0          0.9794           6.000           39.18           1.000    
     11      1     76     21       120.0           3.107           6.000           124.3           1.000    
     12      1     75     21       120.0           15.79           6.000           631.4           1.000    
     13      1     74     21       120.0           15.29           6.000           611.6           1.000    
     14      1     73     21       120.0           13.90           6.000           556.0           1.000    
     15      1     72     21       120.0           12.64           6.000           505.4           1.000    
     16      1     71     21       120.0           11.49           6.000           459.5           1.000    
     17      1     70     21       120.0           10.44           6.000           417.7           1.000    
     18      1     69     21       120.0           9.494           6.000           379.8           1.000    
     19      1     68     21       120.0           8.631           6.000           345.2           1.000    
     20      1     67     21       120.0           9.494           6.000           379.8           1.000    
     21      1     66     21       120.0           10.42           6.000           416.9           1.000    
     22      1     65     21       120.0           9.572           6.000           382.9           1.000    
     23      1     64     21       120.0           6.937           6.000           277.5           1.000    
     24      1     63     21       120.0           2.444           6.000           97.77           1.000    
     25      1     77     22       120.0          0.9230           6.000           36.92           1.000    
     26      1     76     22       120.0           14.37           6.000           574.7           1.000    
     27      1     75     22       120.0           15.29           6.000           611.6           1.000    
     28      1     74     22       120.0           13.90           6.000           556.0           1.000    
     29      1     73     22       120.0           12.64           6.000           505.4           1.000    
     30      1     72     22       120.0           11.49           6.000           459.5           1.000    
     31      1     71     22       120.0           10.44           6.000           417.7           1.000    
     32      1     70     22       120.0           9.494           6.000           379.8           1.000    
     33      1     69     22       120.0           8.631           6.000           345.2           1.000    
     34      1     68     22       120.0           7.846           6.000           313.8           1.000    
     35      1     67     22       120.0           8.631           6.000           345.2           1.000    
     36      1     66     22       120.0           9.494           6.000           379.8           1.000    
     37      1     65     22       120.0           10.44           6.000           417.7           1.000    
     38      1     64     22       120.0           11.49           6.000           459.5           1.000    
     39      1     63     22       120.0           10.93           6.000           437.2           1.000    
     40      1     62     22       120.0          0.2096           6.000           8.382           1.000    
     41      1     77     23       120.0           8.242           6.000           329.7           1.000    
     42      1     76     23       120.0           15.29           6.000           611.6           1.000    
     43      1     75     23       120.0           13.90           6.000           556.0           1.000    
     44      1     74     23       120.0           12.64           6.000           505.4           1.000    
     45      1     73     23       120.0           11.49           6.000           459.5           1.000    
     46      1     72     23       120.0           10.44           6.000           417.7           1.000    
     47      1     71     23       120.0           9.494           6.000           379.8           1.000    
     48      1     70     23       120.0           8.631           6.000           345.2           1.000    
     49      1     69     23       120.0           7.846           6.000           313.8           1.000    
     50      1     68     23       120.0           7.133           6.000           285.3           1.000    
     51      1     67     23       120.0           7.846           6.000           313.8           1.000    
     52      1     66     23       120.0           8.631           6.000           345.2           1.000    
     53      1     65     23       120.0           9.494           6.000           379.8           1.000    
     54      1     64     23       120.0           10.44           6.000           417.7           1.000    
     55      1     63     23       120.0           11.49           6.000           459.5           1.000    
     56      1     62     23       120.0           4.041           6.000           161.6           1.000    
     57      1     77     24       120.0           11.73           6.000           469.3           1.000    
     58      1     76     24       120.0           13.90           6.000           556.0           1.000    
     59      1     75     24       120.0           12.64           6.000           505.4           1.000    
     60      1     74     24       120.0           11.49           6.000           459.5           1.000    
     61      1     73     24       120.0           10.44           6.000           417.7           1.000    
     62      1     72     24       120.0           9.494           6.000           379.8           1.000    
     63      1     71     24       120.0           8.631           6.000           345.2           1.000    
     64      1     70     24       120.0           7.846           6.000           313.8           1.000    
     65      1     69     24       120.0           7.133           6.000           285.3           1.000    
     66      1     68     24       120.0           6.484           6.000           259.4           1.000    
     67      1     67     24       120.0           7.133           6.000           285.3           1.000    
     68      1     66     24       120.0           7.846           6.000           313.8           1.000    
     69      1     65     24       120.0           8.631           6.000           345.2           1.000    
     70      1     64     24       120.0           9.494           6.000           379.8           1.000    
     71      1     63     24       120.0           10.44           6.000           417.7           1.000    
     72      1     62     24       120.0           9.335           6.000           373.4           1.000    
     73      1     61     24       120.0          0.4866           6.000           19.47           1.000    
     74      1     78     25       120.0          0.4255           6.000           17.02           1.000    
     75      1     77     25       120.0           13.54           6.000           541.5           1.000    
     76      1     76     25       120.0           12.64           6.000           505.4           1.000    
     77      1     75     25       120.0           11.49           6.000           459.5           1.000    
     78      1     74     25       120.0           10.44           6.000           417.7           1.000    
     79      1     73     25       120.0           9.494           6.000           379.8           1.000    
     80      1     72     25       120.0           8.631           6.000           345.2           1.000    
     81      1     71     25       120.0           7.846           6.000           313.8           1.000    
     82      1     70     25       120.0           7.133           6.000           285.3           1.000    
     83      1     69     25       120.0           6.484           6.000           259.4           1.000    
     84      1     68     25       120.0           5.895           6.000           235.8           1.000    
     85      1     67     25       120.0           6.484           6.000           259.4           1.000    
     86      1     66     25       120.0           7.133           6.000           285.3           1.000    
     87      1     65     25       120.0           7.846           6.000           313.8           1.000    
     88      1     64     25       120.0           8.631           6.000           345.2           1.000    
     89      1     63     25       120.0           9.494           6.000           379.8           1.000    
     90      1     62     25       120.0           10.44           6.000           417.7           1.000    
     91      1     61     25       120.0           6.832           6.000           273.3           1.000    
     92      1     78     26       120.0           2.785           6.000           111.4           1.000    
     93      1     77     26       120.0           12.64           6.000           505.4           1.000    
     94      1     76     26       120.0           11.49           6.000           459.5           1.000    
     95      1     75     26       120.0           10.44           6.000           417.7           1.000    
     96      1     74     26       120.0           9.494           6.000           379.8           1.000    
     97      1     73     26       120.0           8.631           6.000           345.2           1.000    
     98      1     72     26       120.0           7.846           6.000           313.8           1.000    
     99      1     71     26       120.0           7.133           6.000           285.3           1.000    
    100      1     70     26       120.0           6.484           6.000           259.4           1.000    
    101      1     69     26       120.0           5.895           6.000           235.8           1.000    
    102      1     68     26       120.0           5.359           6.000           214.4           1.000    
    103      1     67     26       120.0           5.895           6.000           235.8           1.000    
    104      1     66     26       120.0           6.484           6.000           259.4           1.000    
    105      1     65     26       120.0           7.133           6.000           285.3           1.000    
    106      1     64     26       120.0           7.846           6.000           313.8           1.000    
    107      1     63     26       120.0           8.631           6.000           345.2           1.000    
    108      1     62     26       120.0           9.494           6.000           379.8           1.000    
    109      1     61     26       120.0           10.42           6.000           416.8           1.000    
    110      1     60     26       120.0           2.787           6.000           111.5           1.000    
    111      1     78     27       120.0           4.784           6.000           191.4           1.000    
    112      1     77     27       120.0           11.49           6.000           459.5           1.000    
    113      1     76     27       120.0           10.44           6.000           417.7           1.000    
    114      1     75     27       120.0           9.494           6.000           379.8           1.000    
    115      1     74     27       120.0           8.631           6.000           345.2           1.000    
    116      1     73     27       120.0           7.846           6.000           313.8           1.000    
    117      1     72     27       120.0           7.133           6.000           285.3           1.000    
    118      1     71     27       120.0           6.484           6.000           259.4           1.000    
    119      1     70     27       120.0           5.895           6.000           235.8           1.000    
    120      1     69     27       120.0           5.359           6.000           214.4           1.000    
    121      1     68     27       120.0           4.872           6.000           194.9           1.000    
    122      1     67     27       120.0           5.359           6.000           214.4           1.000    
    123      1     66     27       120.0           5.895           6.000           235.8           1.000    
    124      1     65     27       120.0           6.484           6.000           259.4           1.000    
    125      1     64     27       120.0           7.133           6.000           285.3           1.000    
    126      1     63     27       120.0           7.846           6.000           313.8           1.000    
    127      1     62     27       120.0           8.631           6.000           345.2           1.000    
    128      1     61     27       120.0           9.494           6.000           379.8           1.000    
    129      1     60     27       120.0           8.260           6.000           330.4           1.000    
    130      1     59     27       120.0          0.3296E-01       6.000           1.318           1.000    
    131      1     78     28       120.0           6.211           6.000           248.5           1.000    
    132      1     77     28       120.0           10.44           6.000           417.7           1.000    
    133      1     76     28       120.0           9.494           6.000           379.8           1.000    
    134      1     75     28       120.0           8.631           6.000           345.2           1.000    
    135      1     74     28       120.0           7.846           6.000           313.8           1.000    
    136      1     73     28       120.0           7.133           6.000           285.3           1.000    
    137      1     72     28       120.0           6.484           6.000           259.4           1.000    
    138      1     71     28       120.0           5.895           6.000           235.8           1.000    
    139      1     70     28       120.0           5.359           6.000           214.4           1.000    
    140      1     69     28       120.0           4.872           6.000           194.9           1.000    
    141      1     68     28       120.0           4.429           6.000           177.2           1.000    
    142      1     67     28       120.0           4.872           6.000           194.9           1.000    
    143      1     66     28       120.0           5.359           6.000           214.4           1.000    
    144      1     65     28       120.0           5.895           6.000           235.8           1.000    
    145      1     64     28       120.0           6.484           6.000           259.4           1.000    
    146      1     63     28       120.0           7.133           6.000           285.3           1.000    
    147      1     62     28       120.0           7.846           6.000           313.8           1.000    
    148      1     61     28       120.0           8.631           6.000           345.2           1.000    
    149      1     60     28       120.0           9.494           6.000           379.8           1.000    
    150      1     59     28       120.0           2.843           6.000           113.7           1.000    
    151      1     78     29       120.0           7.297           6.000           291.9           1.000    
    152      1     77     29       120.0           9.494           6.000           379.8           1.000    
    153      1     76     29       120.0           8.631           6.000           345.2           1.000    
    154      1     75     29       120.0           7.846           6.000           313.8           1.000    
    155      1     74     29       120.0           7.133           6.000           285.3           1.000    
    156      1     73     29       120.0           6.484           6.000           259.4           1.000    
    157      1     72     29       120.0           5.895           6.000           235.8           1.000    
    158      1     71     29       120.0           5.359           6.000           214.4           1.000    
    159      1     70     29       120.0           4.872           6.000           194.9           1.000    
    160      1     69     29       120.0           4.429           6.000           177.2           1.000    
    161      1     68     29       120.0           4.026           6.000           161.1           1.000    
    162      1     67     29       120.0           4.429           6.000           177.2           1.000    
    163      1     66     29       120.0           4.872           6.000           194.9           1.000    
    164      1     65     29       120.0           5.359           6.000           214.4           1.000    
    165      1     64     29       120.0           5.895           6.000           235.8           1.000    
    166      1     63     29       120.0           6.484           6.000           259.4           1.000    
    167      1     62     29       120.0           7.133           6.000           285.3           1.000    
    168      1     61     29       120.0           7.846           6.000           313.8           1.000    
    169      1     60     29       120.0           8.631           6.000           345.2           1.000    
    170      1     59     29       120.0           7.335           6.000           293.4           1.000    
    171      1     58     29       120.0          0.1198E-01       6.000          0.4794           1.000    
    172      1     78     30       120.0           8.186           6.000           327.5           1.000    
    173      1     77     30       120.0           8.631           6.000           345.2           1.000    
    174      1     76     30       120.0           7.846           6.000           313.8           1.000    
    175      1     75     30       120.0           7.133           6.000           285.3           1.000    
    176      1     74     30       120.0           6.484           6.000           259.4           1.000    
    177      1     73     30       120.0           5.895           6.000           235.8           1.000    
    178      1     72     30       120.0           5.359           6.000           214.4           1.000    
    179      1     71     30       120.0           4.872           6.000           194.9           1.000    
    180      1     70     30       120.0           4.429           6.000           177.2           1.000    
    181      1     69     30       120.0           4.026           6.000           161.1           1.000    
    182      1     68     30       120.0           3.660           6.000           146.4           1.000    
    183      1     67     30       120.0           4.026           6.000           161.1           1.000    
    184      1     66     30       120.0           4.429           6.000           177.2           1.000    
    185      1     65     30       120.0           4.872           6.000           194.9           1.000    
    186      1     64     30       120.0           5.359           6.000           214.4           1.000    
    187      1     63     30       120.0           5.895           6.000           235.8           1.000    
    188      1     62     30       120.0           6.484           6.000           259.4           1.000    
    189      1     61     30       120.0           7.133           6.000           285.3           1.000    
    190      1     60     30       120.0           7.846           6.000           313.8           1.000    
    191      1     59     30       120.0           8.631           6.000           345.2           1.000    
    192      1     58     30       120.0           2.374           6.000           94.96           1.000    
    193      1     79     31       120.0          0.2064           6.000           8.257           1.000    
    194      1     78     31       120.0           8.523           6.000           340.9           1.000    
    195      1     77     31       120.0           7.846           6.000           313.8           1.000    
    196      1     76     31       120.0           7.133           6.000           285.3           1.000    
    197      1     75     31       120.0           6.484           6.000           259.4           1.000    
    198      1     74     31       120.0           5.895           6.000           235.8           1.000    
    199      1     73     31       120.0           5.359           6.000           214.4           1.000    
    200      1     72     31       120.0           4.872           6.000           194.9           1.000    
    201      1     71     31       120.0           4.429           6.000           177.2           1.000    
    202      1     70     31       120.0           4.026           6.000           161.1           1.000    
    203      1     69     31       120.0           3.660           6.000           146.4           1.000    
    204      1     68     31       120.0           3.328           6.000           133.1           1.000    
    205      1     67     31       120.0           3.660           6.000           146.4           1.000    
    206      1     66     31       120.0           4.026           6.000           161.1           1.000    
    207      1     65     31       120.0           4.429           6.000           177.2           1.000    
    208      1     64     31       120.0           4.872           6.000           194.9           1.000    
    209      1     63     31       120.0           5.359           6.000           214.4           1.000    
    210      1     62     31       120.0           5.895           6.000           235.8           1.000    
    211      1     61     31       120.0           6.484           6.000           259.4           1.000    
    212      1     60     31       120.0           7.133           6.000           285.3           1.000    
    213      1     59     31       120.0           7.846           6.000           313.8           1.000    
    214      1     58     31       120.0           5.733           6.000           229.3           1.000    
    215      1     79     32       120.0           1.153           6.000           46.13           1.000    
    216      1     78     32       120.0           7.846           6.000           313.8           1.000    
    217      1     77     32       120.0           7.133           6.000           285.3           1.000    
    218      1     76     32       120.0           6.484           6.000           259.4           1.000    
    219      1     75     32       120.0           5.895           6.000           235.8           1.000    
    220      1     74     32       120.0           5.359           6.000           214.4           1.000    
    221      1     73     32       120.0           4.872           6.000           194.9           1.000    
    222      1     72     32       120.0           4.429           6.000           177.2           1.000    
    223      1     71     32       120.0           4.026           6.000           161.1           1.000    
    224      1     70     32       120.0           3.660           6.000           146.4           1.000    
    225      1     69     32       120.0           3.328           6.000           133.1           1.000    
    226      1     68     32       120.0           3.025           6.000           121.0           1.000    
    227      1     67     32       120.0           3.328           6.000           133.1           1.000    
    228      1     66     32       120.0           3.660           6.000           146.4           1.000    
    229      1     65     32       120.0           4.026           6.000           161.1           1.000    
    230      1     64     32       120.0           4.429           6.000           177.2           1.000    
    231      1     63     32       120.0           4.872           6.000           194.9           1.000    
    232      1     62     32       120.0           5.359           6.000           214.4           1.000    
    233      1     61     32       120.0           5.895           6.000           235.8           1.000    
    234      1     60     32       120.0           6.484           6.000           259.4           1.000    
    235      1     59     32       120.0           7.133           6.000           285.3           1.000    
    236      1     58     32       120.0           7.636           6.000           305.5           1.000    
    237      1     57     32       120.0          0.5301           6.000           21.20           1.000    
    238      1     79     33       120.0           1.927           6.000           77.09           1.000    
    239      1     78     33       120.0           7.133           6.000           285.3           1.000    
    240      1     77     33       120.0           6.484           6.000           259.4           1.000    
    241      1     76     33       120.0           5.895           6.000           235.8           1.000    
    242      1     75     33       120.0           5.359           6.000           214.4           1.000    
    243      1     74     33       120.0           4.872           6.000           194.9           1.000    
    244      1     73     33       120.0           4.429           6.000           177.2           1.000    
    245      1     72     33       120.0           4.026           6.000           161.1           1.000    
    246      1     71     33       120.0           3.660           6.000           146.4           1.000    
    247      1     70     33       120.0           3.328           6.000           133.1           1.000    
    248      1     69     33       120.0           3.025           6.000           121.0           1.000    
    249      1     68     33       120.0           2.750           6.000           110.0           1.000    
    250      1     67     33       120.0           3.025           6.000           121.0           1.000    
    251      1     66     33       120.0           3.328           6.000           133.1           1.000    
    252      1     65     33       120.0           3.660           6.000           146.4           1.000    
    253      1     64     33       120.0           4.026           6.000           161.1           1.000    
    254      1     63     33       120.0           4.429           6.000           177.2           1.000    
    255      1     62     33       120.0           4.872           6.000           194.9           1.000    
    256      1     61     33       120.0           5.359           6.000           214.4           1.000    
    257      1     60     33       120.0           5.895           6.000           235.8           1.000    
    258      1     59     33       120.0           6.484           6.000           259.4           1.000    
    259      1     58     33       120.0           7.133           6.000           285.3           1.000    
    260      1     57     33       120.0           2.733           6.000           109.3           1.000    
    261      1     79     34       120.0           2.479           6.000           99.14           1.000    
    262      1     78     34       120.0           6.484           6.000           259.4           1.000    
    263      1     77     34       120.0           5.895           6.000           235.8           1.000    
    264      1     76     34       120.0           5.359           6.000           214.4           1.000    
    265      1     75     34       120.0           4.872           6.000           194.9           1.000    
    266      1     74     34       120.0           4.429           6.000           177.2           1.000    
    267      1     73     34       120.0           4.026           6.000           161.1           1.000    
    268      1     72     34       120.0           3.660           6.000           146.4           1.000    
    269      1     71     34       120.0           3.328           6.000           133.1           1.000    
    270      1     70     34       120.0           3.025           6.000           121.0           1.000    
    271      1     69     34       120.0           2.750           6.000           110.0           1.000    
    272      1     68     34       120.0           2.500           6.000           100.0           1.000    
    273      1     67     34       120.0           2.750           6.000           110.0           1.000    
    274      1     66     34       120.0           3.025           6.000           121.0           1.000    
    275      1     65     34       120.0           3.328           6.000           133.1           1.000    
    276      1     64     34       120.0           3.660           6.000           146.4           1.000    
    277      1     63     34       120.0           4.026           6.000           161.1           1.000    
    278      1     62     34       120.0           4.429           6.000           177.2           1.000    
    279      1     61     34       120.0           4.872           6.000           194.9           1.000    
    280      1     60     34       120.0           5.359           6.000           214.4           1.000    
    281      1     59     34       120.0           5.895           6.000           235.8           1.000    
    282      1     58     34       120.0           6.484           6.000           259.4           1.000    
    283      1     57     34       120.0           4.502           6.000           180.1           1.000    
    284      1     79     35       120.0           3.603           6.000           144.1           1.000    
    285      1     78     35       120.0           7.133           6.000           285.3           1.000    
    286      1     77     35       120.0           6.484           6.000           259.4           1.000    
    287      1     76     35       120.0           5.895           6.000           235.8           1.000    
    288      1     75     35       120.0           5.359           6.000           214.4           1.000    
    289      1     74     35       120.0           4.872           6.000           194.9           1.000    
    290      1     73     35       120.0           4.429           6.000           177.2           1.000    
    291      1     72     35       120.0           4.026           6.000           161.1           1.000    
    292      1     71     35       120.0           3.660           6.000           146.4           1.000    
    293      1     70     35       120.0           3.328           6.000           133.1           1.000    
    294      1     69     35       120.0           3.025           6.000           121.0           1.000    
    295      1     68     35       120.0           2.750           6.000           110.0           1.000    
    296      1     67     35       120.0           3.025           6.000           121.0           1.000    
    297      1     66     35       120.0           3.328           6.000           133.1           1.000    
    298      1     65     35       120.0           3.660           6.000           146.4           1.000    
    299      1     64     35       120.0           4.026           6.000           161.1           1.000    
    300      1     63     35       120.0           4.429           6.000           177.2           1.000    
    301      1     62     35       120.0           4.872           6.000           194.9           1.000    
    302      1     61     35       120.0           5.359           6.000           214.4           1.000    
    303      1     60     35       120.0           5.895           6.000           235.8           1.000    
    304      1     59     35       120.0           6.484           6.000           259.4           1.000    
    305      1     58     35       120.0           7.133           6.000           285.3           1.000    
    306      1     57     35       120.0           7.121           6.000           284.8           1.000    
    307      1     56     35       120.0          0.5139E-01       6.000           2.056           1.000    
    308      1     79     36       120.0           5.951           6.000           238.0           1.000    
    309      1     78     36       120.0           7.846           6.000           313.8           1.000    
    310      1     77     36       120.0           7.133           6.000           285.3           1.000    
    311      1     76     36       120.0           6.484           6.000           259.4           1.000    
    312      1     75     36       120.0           5.895           6.000           235.8           1.000    
    313      1     74     36       120.0           5.359           6.000           214.4           1.000    
    314      1     73     36       120.0           4.872           6.000           194.9           1.000    
    315      1     72     36       120.0           4.429           6.000           177.2           1.000    
    316      1     71     36       120.0           4.026           6.000           161.1           1.000    
    317      1     70     36       120.0           3.660           6.000           146.4           1.000    
    318      1     69     36       120.0           3.328           6.000           133.1           1.000    
    319      1     68     36       120.0           3.025           6.000           121.0           1.000    
    320      1     67     36       120.0           3.328           6.000           133.1           1.000    
    321      1     66     36       120.0           3.660           6.000           146.4           1.000    
    322      1     65     36       120.0           4.026           6.000           161.1           1.000    
    323      1     64     36       120.0           4.429           6.000           177.2           1.000    
    324      1     63     36       120.0           4.872           6.000           194.9           1.000    
    325      1     62     36       120.0           5.359           6.000           214.4           1.000    
    326      1     61     36       120.0           5.895           6.000           235.8           1.000    
    327      1     60     36       120.0           6.484           6.000           259.4           1.000    
    328      1     59     36       120.0           7.133           6.000           285.3           1.000    
    329      1     58     36       120.0           7.846           6.000           313.8           1.000    
    330      1     57     36       120.0           8.631           6.000           345.2           1.000    
    331      1     56     36       120.0           1.907           6.000           76.30           1.000    
    332      1     80     37       120.0          0.2317           6.000           9.270           1.000    
    333      1     79     37       120.0           8.998           6.000           359.9           1.000    
    334      1     78     37       120.0           8.631           6.000           345.2           1.000    
    335      1     77     37       120.0           7.846           6.000           313.8           1.000    
    336      1     76     37       120.0           7.133           6.000           285.3           1.000    
    337      1     75     37       120.0           6.484           6.000           259.4           1.000    
    338      1     74     37       120.0           5.895           6.000           235.8           1.000    
    339      1     73     37       120.0           5.359           6.000           214.4           1.000    
    340      1     72     37       120.0           4.872           6.000           194.9           1.000    
    341      1     71     37       120.0           4.429           6.000           177.2           1.000    
    342      1     70     37       120.0           4.026           6.000           161.1           1.000    
    343      1     69     37       120.0           3.660           6.000           146.4           1.000    
    344      1     68     37       120.0           3.328           6.000           133.1           1.000    
    345      1     67     37       120.0           3.660           6.000           146.4           1.000    
    346      1     66     37       120.0           4.026           6.000           161.1           1.000    
    347      1     65     37       120.0           4.429           6.000           177.2           1.000    
    348      1     64     37       120.0           4.872           6.000           194.9           1.000    
    349      1     63     37       120.0           5.359           6.000           214.4           1.000    
    350      1     62     37       120.0           5.895           6.000           235.8           1.000    
    351      1     61     37       120.0           6.484           6.000           259.4           1.000    
    352      1     60     37       120.0           7.133           6.000           285.3           1.000    
    353      1     59     37       120.0           7.846           6.000           313.8           1.000    
    354      1     58     37       120.0           8.631           6.000           345.2           1.000    
    355      1     57     37       120.0           9.494           6.000           379.8           1.000    
    356      1     56     37       120.0           3.814           6.000           152.6           1.000    
    357      1     80     38       120.0           2.957           6.000           118.3           1.000    
    358      1     79     38       120.0           10.44           6.000           417.7           1.000    
    359      1     78     38       120.0           9.494           6.000           379.8           1.000    
    360      1     77     38       120.0           8.631           6.000           345.2           1.000    
    361      1     76     38       120.0           7.846           6.000           313.8           1.000    
    362      1     75     38       120.0           7.133           6.000           285.3           1.000    
    363      1     74     38       120.0           6.484           6.000           259.4           1.000    
    364      1     73     38       120.0           5.895           6.000           235.8           1.000    
    365      1     72     38       120.0           5.359           6.000           214.4           1.000    
    366      1     71     38       120.0           4.872           6.000           194.9           1.000    
    367      1     70     38       120.0           4.429           6.000           177.2           1.000    
    368      1     69     38       120.0           4.026           6.000           161.1           1.000    
    369      1     68     38       120.0           3.660           6.000           146.4           1.000    
    370      1     67     38       120.0           4.026           6.000           161.1           1.000    
    371      1     66     38       120.0           4.429           6.000           177.2           1.000    
    372      1     65     38       120.0           4.872           6.000           194.9           1.000    
    373      1     64     38       120.0           5.359           6.000           214.4           1.000    
    374      1     63     38       120.0           5.895           6.000           235.8           1.000    
    375      1     62     38       120.0           6.484           6.000           259.4           1.000    
    376      1     61     38       120.0           7.133           6.000           285.3           1.000    
    377      1     60     38       120.0           7.846           6.000           313.8           1.000    
    378      1     59     38       120.0           8.631           6.000           345.2           1.000    
    379      1     58     38       120.0           9.494           6.000           379.8           1.000    
    380      1     57     38       120.0           10.44           6.000           417.7           1.000    
    381      1     56     38       120.0           5.451           6.000           218.0           1.000    
    382      1     80     39       120.0           7.182           6.000           287.3           1.000    
    383      1     79     39       120.0           11.49           6.000           459.5           1.000    
    384      1     78     39       120.0           10.44           6.000           417.7           1.000    
    385      1     77     39       120.0           9.494           6.000           379.8           1.000    
    386      1     76     39       120.0           8.631           6.000           345.2           1.000    
    387      1     75     39       120.0           7.846           6.000           313.8           1.000    
    388      1     74     39       120.0           7.133           6.000           285.3           1.000    
    389      1     73     39       120.0           6.484           6.000           259.4           1.000    
    390      1     72     39       120.0           5.895           6.000           235.8           1.000    
    391      1     71     39       120.0           5.359           6.000           214.4           1.000    
    392      1     70     39       120.0           4.872           6.000           194.9           1.000    
    393      1     69     39       120.0           4.429           6.000           177.2           1.000    
    394      1     68     39       120.0           4.026           6.000           161.1           1.000    
    395      1     67     39       120.0           4.429           6.000           177.2           1.000    
    396      1     66     39       120.0           4.872           6.000           194.9           1.000    
    397      1     65     39       120.0           5.359           6.000           214.4           1.000    
    398      1     64     39       120.0           5.895           6.000           235.8           1.000    
    399      1     63     39       120.0           6.484           6.000           259.4           1.000    
    400      1     62     39       120.0           7.133           6.000           285.3           1.000    
    401      1     61     39       120.0           7.846           6.000           313.8           1.000    
    402      1     60     39       120.0           8.631           6.000           345.2           1.000    
    403      1     59     39       120.0           9.494           6.000           379.8           1.000    
    404      1     58     39       120.0           10.44           6.000           417.7           1.000    
    405      1     57     39       120.0           11.49           6.000           459.5           1.000    
    406      1     56     39       120.0           7.515           6.000           300.6           1.000    
    407      1     80     40       120.0           12.20           6.000           488.2           1.000    
    408      1     79     40       120.0           12.64           6.000           505.4           1.000    
    409      1     78     40       120.0           11.49           6.000           459.5           1.000    
    410      1     77     40       120.0           10.44           6.000           417.7           1.000    
    411      1     76     40       120.0           9.494           6.000           379.8           1.000    
    412      1     75     40       120.0           8.631           6.000           345.2           1.000    
    413      1     74     40       120.0           7.846           6.000           313.8           1.000    
    414      1     73     40       120.0           7.133           6.000           285.3           1.000    
    415      1     72     40       120.0           6.484           6.000           259.4           1.000    
    416      1     71     40       120.0           5.895           6.000           235.8           1.000    
    417      1     70     40       120.0           5.359           6.000           214.4           1.000    
    418      1     69     40       120.0           4.872           6.000           194.9           1.000    
    419      1     68     40       120.0           4.429           6.000           177.2           1.000    
    420      1     67     40       120.0           4.872           6.000           194.9           1.000    
    421      1     66     40       120.0           5.359           6.000           214.4           1.000    
    422      1     65     40       120.0           5.895           6.000           235.8           1.000    
    423      1     64     40       120.0           6.484           6.000           259.4           1.000    
    424      1     63     40       120.0           7.133           6.000           285.3           1.000    
    425      1     62     40       120.0           7.846           6.000           313.8           1.000    
    426      1     61     40       120.0           8.631           6.000           345.2           1.000    
    427      1     60     40       120.0           9.494           6.000           379.8           1.000    
    428      1     59     40       120.0           10.44           6.000           417.7           1.000    
    429      1     58     40       120.0           11.49           6.000           459.5           1.000    
    430      1     57     40       120.0           12.64           6.000           505.4           1.000    
    431      1     56     40       120.0           10.10           6.000           404.1           1.000    
    432      1     81     41       120.0           1.538           6.000           61.53           1.000    
    433      1     80     41       120.0           15.29           6.000           611.4           1.000    
    434      1     79     41       120.0           13.90           6.000           556.0           1.000    
    435      1     78     41       120.0           12.64           6.000           505.4           1.000    
    436      1     77     41       120.0           11.49           6.000           459.5           1.000    
    437      1     76     41       120.0           10.44           6.000           417.7           1.000    
    438      1     75     41       120.0           9.494           6.000           379.8           1.000    
    439      1     74     41       120.0           8.631           6.000           345.2           1.000    
    440      1     73     41       120.0           7.846           6.000           313.8           1.000    
    441      1     72     41       120.0           7.133           6.000           285.3           1.000    
    442      1     71     41       120.0           6.484           6.000           259.4           1.000    
    443      1     70     41       120.0           5.895           6.000           235.8           1.000    
    444      1     69     41       120.0           5.359           6.000           214.4           1.000    
    445      1     68     41       120.0           4.872           6.000           194.9           1.000    
    446      1     67     41       120.0           5.359           6.000           214.4           1.000    
    447      1     66     41       120.0           5.895           6.000           235.8           1.000    
    448      1     65     41       120.0           6.484           6.000           259.4           1.000    
    449      1     64     41       120.0           7.133           6.000           285.3           1.000    
    450      1     63     41       120.0           7.846           6.000           313.8           1.000    
    451      1     62     41       120.0           8.631           6.000           345.2           1.000    
    452      1     61     41       120.0           9.494           6.000           379.8           1.000    
    453      1     60     41       120.0           10.44           6.000           417.7           1.000    
    454      1     59     41       120.0           11.49           6.000           459.5           1.000    
    455      1     58     41       120.0           12.64           6.000           505.4           1.000    
    456      1     57     41       120.0           13.90           6.000           556.0           1.000    
    457      1     56     41       120.0           13.34           6.000           533.5           1.000    
    458      1     81     42       120.0           5.619           6.000           224.7           1.000    
    459      1     80     42       120.0           16.82           6.000           672.8           1.000    
    460      1     79     42       120.0           15.29           6.000           611.6           1.000    
    461      1     78     42       120.0           13.90           6.000           556.0           1.000    
    462      1     77     42       120.0           12.64           6.000           505.4           1.000    
    463      1     76     42       120.0           11.49           6.000           459.5           1.000    
    464      1     75     42       120.0           10.44           6.000           417.7           1.000    
    465      1     74     42       120.0           9.494           6.000           379.8           1.000    
    466      1     73     42       120.0           8.631           6.000           345.2           1.000    
    467      1     72     42       120.0           7.846           6.000           313.8           1.000    
    468      1     71     42       120.0           7.133           6.000           285.3           1.000    
    469      1     70     42       120.0           6.484           6.000           259.4           1.000    
    470      1     69     42       120.0           5.895           6.000           235.8           1.000    
    471      1     68     42       120.0           5.359           6.000           214.4           1.000    
    472      1     67     42       120.0           5.895           6.000           235.8           1.000    
    473      1     66     42       120.0           6.484           6.000           259.4           1.000    
    474      1     65     42       120.0           7.133           6.000           285.3           1.000    
    475      1     64     42       120.0           7.846           6.000           313.8           1.000    
    476      1     63     42       120.0           8.631           6.000           345.2           1.000    
    477      1     62     42       120.0           9.494           6.000           379.8           1.000    
    478      1     61     42       120.0           10.44           6.000           417.7           1.000    
    479      1     60     42       120.0           11.49           6.000           459.5           1.000    
    480      1     59     42       120.0           12.64           6.000           505.4           1.000    
    481      1     58     42       120.0           13.90           6.000           556.0           1.000    
    482      1     57     42       120.0           15.29           6.000           611.6           1.000    
    483      1     56     42       120.0           16.69           6.000           667.4           1.000    
    484      1     55     42       120.0          0.5278           6.000           21.11           1.000    
    485      1     81     43       120.0           10.94           6.000           437.5           1.000    
    486      1     80     43       120.0           18.50           6.000           740.0           1.000    
    487      1     79     43       120.0           16.82           6.000           672.8           1.000    
    488      1     78     43       120.0           15.29           6.000           611.6           1.000    
    489      1     77     43       120.0           13.90           6.000           556.0           1.000    
    490      1     76     43       120.0           12.64           6.000           505.4           1.000    
    491      1     75     43       120.0           11.49           6.000           459.5           1.000    
    492      1     74     43       120.0           10.44           6.000           417.7           1.000    
    493      1     73     43       120.0           9.494           6.000           379.8           1.000    
    494      1     72     43       120.0           8.631           6.000           345.2           1.000    
    495      1     71     43       120.0           7.846           6.000           313.8           1.000    
    496      1     70     43       120.0           7.133           6.000           285.3           1.000    
    497      1     69     43       120.0           6.484           6.000           259.4           1.000    
    498      1     68     43       120.0           5.895           6.000           235.8           1.000    
    499      1     67     43       120.0           6.484           6.000           259.4           1.000    
    500      1     66     43       120.0           7.133           6.000           285.3           1.000    
    501      1     65     43       120.0           7.846           6.000           313.8           1.000    
    502      1     64     43       120.0           8.631           6.000           345.2           1.000    
    503      1     63     43       120.0           9.494           6.000           379.8           1.000    
    504      1     62     43       120.0           10.44           6.000           417.7           1.000    
[...]
    698      1     57     50       120.0           19.04           6.000           761.7           1.000    
    699      1     56     50       120.0           16.72           6.000           668.8           1.000    
    700      1     81     51       120.0          0.3585           6.000           14.34           1.000    
    701      1     80     51       120.0           18.97           6.000           758.9           1.000    
    702      1     79     51       120.0           19.04           6.000           761.7           1.000    
    703      1     78     51       120.0           17.31           6.000           692.5           1.000    
    704      1     77     51       120.0           15.74           6.000           629.5           1.000    
    705      1     76     51       120.0           14.31           6.000           572.3           1.000    
    706      1     75     51       120.0           13.01           6.000           520.3           1.000    
    707      1     74     51       120.0           11.82           6.000           473.0           1.000    
    708      1     73     51       120.0           10.75           6.000           430.0           1.000    
    709      1     72     51       120.0           9.772           6.000           390.9           1.000    
    710      1     71     51       120.0           8.884           6.000           355.4           1.000    
    711      1     70     51       120.0           8.076           6.000           323.0           1.000    
    712      1     69     51       120.0           7.342           6.000           293.7           1.000    
    713      1     68     51       120.0           6.675           6.000           267.0           1.000    
    714      1     67     51       120.0           7.342           6.000           293.7           1.000    
    715      1     66     51       120.0           8.076           6.000           323.0           1.000    
    716      1     65     51       120.0           8.884           6.000           355.4           1.000    
    717      1     64     51       120.0           9.772           6.000           390.9           1.000    
    718      1     63     51       120.0           10.75           6.000           430.0           1.000    
    719      1     62     51       120.0           11.82           6.000           473.0           1.000    
    720      1     61     51       120.0           13.01           6.000           520.3           1.000    
    721      1     60     51       120.0           14.31           6.000           572.3           1.000    
    722      1     59     51       120.0           15.74           6.000           629.5           1.000    
    723      1     58     51       120.0           17.31           6.000           692.5           1.000    
    724      1     57     51       120.0           19.04           6.000           761.7           1.000    
    725      1     56     51       120.0           12.59           6.000           503.7           1.000    
    726      1     80     52       120.0           11.30           6.000           452.0           1.000    
    727      1     79     52       120.0           19.04           6.000           761.7           1.000    
    728      1     78     52       120.0           17.31           6.000           692.5           1.000    
    729      1     77     52       120.0           15.74           6.000           629.5           1.000    
    730      1     76     52       120.0           14.31           6.000           572.3           1.000    
    731      1     75     52       120.0           13.01           6.000           520.3           1.000    
    732      1     74     52       120.0           11.82           6.000           473.0           1.000    
    733      1     73     52       120.0           10.75           6.000           430.0           1.000    
    734      1     72     52       120.0           9.772           6.000           390.9           1.000    
    735      1     71     52       120.0           8.884           6.000           355.4           1.000    
    736      1     70     52       120.0           8.076           6.000           323.0           1.000    
    737      1     69     52       120.0           7.342           6.000           293.7           1.000    
    738      1     68     52       120.0           6.675           6.000           267.0           1.000    
    739      1     67     52       120.0           7.342           6.000           293.7           1.000    
    740      1     66     52       120.0           8.076           6.000           323.0           1.000    
    741      1     65     52       120.0           8.884           6.000           355.4           1.000    
    742      1     64     52       120.0           9.772           6.000           390.9           1.000    
    743      1     63     52       120.0           10.75           6.000           430.0           1.000    
    744      1     62     52       120.0           11.82           6.000           473.0           1.000    
    745      1     61     52       120.0           13.01           6.000           520.3           1.000    
    746      1     60     52       120.0           14.31           6.000           572.3           1.000    
    747      1     59     52       120.0           15.74           6.000           629.5           1.000    
    748      1     58     52       120.0           17.31           6.000           692.5           1.000    
    749      1     57     52       120.0           19.04           6.000           761.7           1.000    
    750      1     56     52       120.0           8.364           6.000           334.5           1.000    
    751      1     80     53       120.0           3.302           6.000           132.1           1.000    
    752      1     79     53       120.0           19.01           6.000           760.3           1.000    
    753      1     78     53       120.0           17.31           6.000           692.5           1.000    
    754      1     77     53       120.0           15.74           6.000           629.5           1.000    
    755      1     76     53       120.0           14.31           6.000           572.3           1.000    
    756      1     75     53       120.0           13.01           6.000           520.3           1.000    
    757      1     74     53       120.0           11.82           6.000           473.0           1.000    
    758      1     73     53       120.0           10.75           6.000           430.0           1.000    
    759      1     72     53       120.0           9.772           6.000           390.9           1.000    
    760      1     71     53       120.0           8.884           6.000           355.4           1.000    
    761      1     70     53       120.0           8.076           6.000           323.0           1.000    
    762      1     69     53       120.0           7.342           6.000           293.7           1.000    
    763      1     68     53       120.0           6.675           6.000           267.0           1.000    
    764      1     67     53       120.0           7.342           6.000           293.7           1.000    
    765      1     66     53       120.0           8.076           6.000           323.0           1.000    
    766      1     65     53       120.0           8.884           6.000           355.4           1.000    
    767      1     64     53       120.0           9.772           6.000           390.9           1.000    
    768      1     63     53       120.0           10.75           6.000           430.0           1.000    
    769      1     62     53       120.0           11.82           6.000           473.0           1.000    
    770      1     61     53       120.0           13.01           6.000           520.3           1.000    
    771      1     60     53       120.0           14.31           6.000           572.3           1.000    
    772      1     59     53       120.0           15.74           6.000           629.5           1.000    
    773      1     58     53       120.0           16.52           6.000           660.8           1.000    
    774      1     57     53       120.0           8.640           6.000           345.6           1.000    
    775      1     56     53       120.0          0.2815           6.000           11.26           1.000    
    776      1     79     54       120.0           14.04           6.000           561.6           1.000    
    777      1     78     54       120.0           17.31           6.000           692.5           1.000    
    778      1     77     54       120.0           15.74           6.000           629.5           1.000    
    779      1     76     54       120.0           14.31           6.000           572.3           1.000    
    780      1     75     54       120.0           13.01           6.000           520.3           1.000    
    781      1     74     54       120.0           11.82           6.000           473.0           1.000    
    782      1     73     54       120.0           10.75           6.000           430.0           1.000    
    783      1     72     54       120.0           9.772           6.000           390.9           1.000    
    784      1     71     54       120.0           8.884           6.000           355.4           1.000    
    785      1     70     54       120.0           8.076           6.000           323.0           1.000    
    786      1     69     54       120.0           7.342           6.000           293.7           1.000    
    787      1     68     54       120.0           6.675           6.000           267.0           1.000    
    788      1     67     54       120.0           7.342           6.000           293.7           1.000    
    789      1     66     54       120.0           8.076           6.000           323.0           1.000    
    790      1     65     54       120.0           8.884           6.000           355.4           1.000    
    791      1     64     54       120.0           9.772           6.000           390.9           1.000    
    792      1     63     54       120.0           10.75           6.000           430.0           1.000    
    793      1     62     54       120.0           11.82           6.000           473.0           1.000    
    794      1     61     54       120.0           13.01           6.000           520.3           1.000    
    795      1     60     54       120.0           13.85           6.000           553.9           1.000    
    796      1     59     54       120.0           9.538           6.000           381.5           1.000    
    797      1     58     54       120.0           1.804           6.000           72.18           1.000    
    798      1     79     55       120.0           3.095           6.000           123.8           1.000    
    799      1     78     55       120.0           16.37           6.000           654.8           1.000    
    800      1     77     55       120.0           15.29           6.000           611.6           1.000    
    801      1     76     55       120.0           13.90           6.000           556.0           1.000    
    802      1     75     55       120.0           12.64           6.000           505.4           1.000    
    803      1     74     55       120.0           11.49           6.000           459.5           1.000    
    804      1     73     55       120.0           10.44           6.000           417.7           1.000    
    805      1     72     55       120.0           9.494           6.000           379.8           1.000    
    806      1     71     55       120.0           8.631           6.000           345.2           1.000    
    807      1     70     55       120.0           7.846           6.000           313.8           1.000    
    808      1     69     55       120.0           7.133           6.000           285.3           1.000    
    809      1     68     55       120.0           6.484           6.000           259.4           1.000    
    810      1     67     55       120.0           7.133           6.000           285.3           1.000    
    811      1     66     55       120.0           7.846           6.000           313.8           1.000    
    812      1     65     55       120.0           8.631           6.000           345.2           1.000    
    813      1     64     55       120.0           9.494           6.000           379.8           1.000    
    814      1     63     55       120.0           10.14           6.000           405.7           1.000    
    815      1     62     55       120.0           8.235           6.000           329.4           1.000    
    816      1     61     55       120.0           4.928           6.000           197.1           1.000    
    817      1     60     55       120.0          0.8831           6.000           35.33           1.000    
    818      1     78     56       120.0           7.449           6.000           298.0           1.000    
    819      1     77     56       120.0           13.90           6.000           556.0           1.000    
    820      1     76     56       120.0           12.64           6.000           505.4           1.000    
    821      1     75     56       120.0           11.49           6.000           459.5           1.000    
    822      1     74     56       120.0           10.44           6.000           417.7           1.000    
    823      1     73     56       120.0           9.494           6.000           379.8           1.000    
    824      1     72     56       120.0           8.631           6.000           345.2           1.000    
    825      1     71     56       120.0           7.846           6.000           313.8           1.000    
    826      1     70     56       120.0           7.133           6.000           285.3           1.000    
    827      1     69     56       120.0           6.484           6.000           259.4           1.000    
    828      1     68     56       120.0           5.895           6.000           235.8           1.000    
    829      1     67     56       120.0           6.437           6.000           257.5           1.000    
    830      1     66     56       120.0           5.908           6.000           236.3           1.000    
    831      1     65     56       120.0           4.572           6.000           182.9           1.000    
    832      1     64     56       120.0           2.698           6.000           107.9           1.000    
    833      1     63     56       120.0          0.4462           6.000           17.85           1.000    
    834      1     78     57       120.0          0.3386           6.000           13.54           1.000    
    835      1     77     57       120.0           8.902           6.000           356.1           1.000    
    836      1     76     57       120.0           11.43           6.000           457.2           1.000    
    837      1     75     57       120.0           10.44           6.000           417.7           1.000    
    838      1     74     57       120.0           9.494           6.000           379.8           1.000    
    839      1     73     57       120.0           8.631           6.000           345.2           1.000    
    840      1     72     57       120.0           7.846           6.000           313.8           1.000    
    841      1     71     57       120.0           6.827           6.000           273.1           1.000    
    842      1     70     57       120.0           4.683           6.000           187.3           1.000    
    843      1     69     57       120.0           2.857           6.000           114.3           1.000    
    844      1     68     57       120.0           1.440           6.000           57.62           1.000    
    845      1     67     57       120.0          0.3588           6.000           14.35           1.000    
    846      1     76     58       120.0           1.560           6.000           62.41           1.000    
    847      1     75     58       120.0           5.205           6.000           208.2           1.000    
    848      1     74     58       120.0           7.507           6.000           300.3           1.000    
    849      1     73     58       120.0           5.068           6.000           202.7           1.000    
    850      1     72     58       120.0           2.126           6.000           85.05           1.000    
    851      1     71     58       120.0          0.1890           6.000           7.560           1.000    

    851 GHB CELLS



                           RECHARGE
 READING ON UNIT  716 WITH FORMAT: (FREE)              

 SOLVING FOR HEAD 

 OUTPUT CONTROL FOR STRESS PERIOD    1   TIME STEP   1
    PRINT BUDGET
    SAVE HEAD FOR ALL LAYERS
    SAVE BUDGET
 UBDSV2 SAVING "   CONSTANT HEAD" ON UNIT 740 AT TIME STEP  1, STRESS PERIOD   1
 UBDSV1 SAVING "FLOW RIGHT FACE " ON UNIT 740 AT TIME STEP  1, STRESS PERIOD   1
 UBDSV1 SAVING "FLOW FRONT FACE " ON UNIT 740 AT TIME STEP  1, STRESS PERIOD   1
 UBDSV4 SAVING "           WELLS" ON UNIT 740 AT TIME STEP  1, STRESS PERIOD   1
 UBDSV4 SAVING "   RIVER LEAKAGE" ON UNIT 740 AT TIME STEP  1, STRESS PERIOD   1
 UBDSV4 SAVING " HEAD DEP BOUNDS" ON UNIT 740 AT TIME STEP  1, STRESS PERIOD   1
 UBDSV3 SAVING "        RECHARGE" ON UNIT 740 AT TIME STEP  1, STRESS PERIOD   1

 HEAD WILL BE SAVED ON UNIT  730 AT END OF TIME STEP   1, STRESS PERIOD    1
1
  VOLUMETRIC BUDGET FOR ENTIRE MODEL AT END OF TIME STEP  1 IN STRESS PERIOD   1
  ------------------------------------------------------------------------------

     CUMULATIVE VOLUMES      L**3       RATES FOR THIS TIME STEP      L**3/T
     ------------------                 ------------------------

           IN:                                      IN:
           ---                                      ---
             STORAGE =           0.0000               STORAGE =           0.0000
       CONSTANT HEAD =           0.0000         CONSTANT HEAD =           0.0000
               WELLS =           0.0000                 WELLS =           0.0000
       RIVER LEAKAGE =         301.9799         RIVER LEAKAGE =         301.9799
     HEAD DEP BOUNDS =        8219.1875       HEAD DEP BOUNDS =        8219.1875
            RECHARGE =        1221.6714              RECHARGE =        1221.6714

            TOTAL IN =        9742.8379              TOTAL IN =        9742.8379

          OUT:                                     OUT:
          ----                                     ----
             STORAGE =           0.0000               STORAGE =           0.0000
       CONSTANT HEAD =         242.8332         CONSTANT HEAD =         242.8332
               WELLS =        9500.0000                 WELLS =        9500.0000
       RIVER LEAKAGE =           0.0000         RIVER LEAKAGE =           0.0000
     HEAD DEP BOUNDS =           0.0000       HEAD DEP BOUNDS =           0.0000
            RECHARGE =           0.0000              RECHARGE =           0.0000

           TOTAL OUT =        9742.8330             TOTAL OUT =        9742.8330

            IN - OUT =       4.8828E-03              IN - OUT =       4.8828E-03

 PERCENT DISCREPANCY =           0.00     PERCENT DISCREPANCY =           0.00






          TIME SUMMARY AT END OF TIME STEP   1 IN STRESS PERIOD    1
                    SECONDS     MINUTES      HOURS       DAYS        YEARS
                    -----------------------------------------------------------
   TIME STEP LENGTH  86400.      1440.0      24.000      1.0000     2.73785E-03
 STRESS PERIOD TIME  86400.      1440.0      24.000      1.0000     2.73785E-03
         TOTAL TIME  86400.      1440.0      24.000      1.0000     2.73785E-03
1
