                                  MODFLOW-2000
      U.S. GEOLOGICAL SURVEY MODULAR FINITE-DIFFERENCE GROUND-WATER FLOW MODEL
                           VERSION 1.19.01 03/25/2010


 This model run produced both GLOBAL and LIST files.  This is the LIST file.


 # BAS6 package for MODFLOW-2000 generated by Flopy 3.9.3                        
 THE FREE FORMAT OPTION HAS BEEN SELECTED
    1 LAYERS        40 ROWS        50 COLUMNS
    1 STRESS PERIOD(S) IN SIMULATION

 BAS6 -- BASIC PACKAGE, VERSION 6, 1/11/2000 INPUT READ FROM UNIT   13
          5 ELEMENTS IN IR ARRAY ARE USED BY BAS

 RCH6 -- RECHARGE PACKAGE, VERSION 6, 1/11/2000 INPUT READ FROM UNIT   19
 # RCH package for MODFLOW-2000 generated by Flopy 3.9.3
 No named parameters
 OPTION 3 -- RECHARGE TO HIGHEST ACTIVE NODE IN EACH VERTICAL COLUMN
       2000 ELEMENTS IN RX ARRAY ARE USED BY RCH
       2000 ELEMENTS IN IR ARRAY ARE USED BY RCH

       2000  ELEMENTS OF RX ARRAY USED OUT OF       2000
          0  ELEMENTS OF RZ ARRAY USED OUT OF          1
       2005  ELEMENTS OF IR ARRAY USED OUT OF       2005
1
 # BAS6 package for MODFLOW-2000 generated by Flopy 3.9.3                        
                                                                                 



                     BOUNDARY ARRAY FOR LAYER   1
 READING ON UNIT   13 WITH FORMAT: (50I10)             

 AQUIFER HEAD WILL BE SET TO -999.99     AT ALL NO-FLOW NODES (IBOUND=0).



                       INITIAL HEAD FOR LAYER   1
 READING ON UNIT   13 WITH FORMAT: (50E15.6)           
 # OC package for MODFLOW-2000 generated by Flopy 3.9.3

 OUTPUT CONTROL IS SPECIFIED ONLY AT TIME STEPS FOR WHICH OUTPUT IS DESIRED
 COMPACT CELL-BY-CELL BUDGET FILES WILL BE WRITTEN
 AUXILIARY DATA WILL BE SAVED IN CELL-BY-CELL BUDGET FILES
 HEAD PRINT FORMAT CODE IS   0    DRAWDOWN PRINT FORMAT CODE IS   0
 HEADS WILL BE SAVED ON UNIT   51    DRAWDOWNS WILL BE SAVED ON UNIT   52
1
                            STRESS PERIOD NO.    1, LENGTH =   1.000000    
                            -----------------------------------------------

                              NUMBER OF TIME STEPS =     1

                               MULTIPLIER FOR DELT =     1.000

                            INITIAL TIME STEP SIZE =   1.000000    

                 RECHARGE =  1.000000E-02

 SOLVING FOR HEAD 

 OUTPUT CONTROL FOR STRESS PERIOD    1   TIME STEP   1
    PRINT HEAD FOR ALL LAYERS
    PRINT DRAWDOWN FOR ALL LAYERS
    SAVE HEAD FOR ALL LAYERS
    SAVE DRAWDOWN FOR ALL LAYERS
1
              HEAD IN LAYER   1 AT END OF TIME STEP   1 IN STRESS PERIOD    1
  ---------------------------------------------------------------------------

            1           2           3           4           5           6           7           8           9          10
           11          12          13          14          15          16          17          18          19          20
           21          22          23          24          25          26          27          28          29          30
           31          32          33          34          35          36          37          38          39          40
           41          42          43          44          45          46          47          48          49          50
 ........................................................................................................................
   1    179.7       179.7       179.7       179.6       179.5       179.4       179.3       179.1       178.9       178.7    
        178.5       178.2       178.0       177.7       177.4       177.0       176.7       176.3       175.9       175.4    
        175.0       174.5       174.0       173.5       172.9       172.3       171.7       171.1       170.4       169.8    
        169.1       168.3       167.6       166.8       166.0       165.1       164.2       163.3       162.4       161.4    
        160.4       159.4       158.4       157.3       156.1       155.0       153.8       152.6       151.3       150.0    
   2    179.7       179.7       179.7       179.6       179.5       179.4       179.3       179.1       178.9       178.7    
        178.5       178.2       178.0       177.7       177.4       177.0       176.7       176.3       175.9       175.4    
        175.0       174.5       174.0       173.5       172.9       172.3       171.7       171.1       170.4       169.8    
        169.1       168.3       167.6       166.8       166.0       165.1       164.2       163.3       162.4       161.4    
        160.4       159.4       158.4       157.3       156.1       155.0       153.8       152.6       151.3       150.0    
   3    179.7       179.7       179.7       179.6       179.5       179.4       179.3       179.1       178.9       178.7    
        178.5       178.2       178.0       177.7       177.4       177.0       176.7       176.3       175.9       175.4    
        175.0       174.5       174.0       173.5       172.9       172.3       171.7       171.1       170.4       169.8    
        169.1       168.3       167.6       166.8       166.0       165.1       164.2       163.3       162.4       161.4    
        160.4       159.4       158.4       157.3       156.1       155.0       153.8       152.6       151.3       150.0    
   4    179.7       179.7       179.7       179.6       179.5       179.4       179.3       179.1       178.9       178.7    
        178.5       178.2       178.0       177.7       177.4       177.0       176.7       176.3       175.9       175.4    
        175.0       174.5       174.0       173.5       172.9       172.3       171.7       171.1       170.4       169.8    
        169.1       168.3       167.6       166.8       166.0       165.1       164.2       163.3       162.4       161.4    
        160.4       159.4       158.4       157.3       156.1       155.0       153.8       152.6       151.3       150.0    
   5    179.7       179.7       179.7       179.6       179.5       179.4       179.3       179.1       178.9       178.7    
        178.5       178.2       178.0       177.7       177.4       177.0       176.7       176.3       175.9       175.4    
        175.0       174.5       174.0       173.5       172.9       172.3       171.7       171.1       170.4       169.8    
        169.1       168.3       167.6       166.8       166.0       165.1       164.2       163.3       162.4       161.4    
        160.4       159.4       158.4       157.3       156.1       155.0       153.8       152.6       151.3       150.0    
   6    179.7       179.7       179.7       179.6       179.5       179.4       179.3       179.1       178.9       178.7    
        178.5       178.2       178.0       177.7       177.4       177.0       176.7       176.3       175.9       175.4    
        175.0       174.5       174.0       173.5       172.9       172.3       171.7       171.1       170.4       169.8    
        169.1       168.3       167.6       166.8       166.0       165.1       164.2       163.3       162.4       161.4    
        160.4       159.4       158.4       157.3       156.1       155.0       153.8       152.6       151.3       150.0    
   7    179.7       179.7       179.7       179.6       179.5       179.4       179.3       179.1       178.9       178.7    
        178.5       178.2       178.0       177.7       177.4       177.0       176.7       176.3       175.9       175.4    
        175.0       174.5       174.0       173.5       172.9       172.3       171.7       171.1       170.4       169.8    
        169.1       168.3       167.6       166.8       166.0       165.1       164.2       163.3       162.4       161.4    
        160.4       159.4       158.4       157.3       156.1       155.0       153.8       152.6       151.3       150.0    
   8    179.7       179.7       179.7       179.6       179.5       179.4       179.3       179.1       178.9       178.7    
        178.5       178.2       178.0       177.7       177.4       177.0       176.7       176.3       175.9       175.4    
        175.0       174.5       174.0       173.5       172.9       172.3       171.7       171.1       170.4       169.8    
        169.1       168.3       167.6       166.8       166.0       165.1       164.2       163.3       162.4       161.4    
        160.4       159.4       158.4       157.3       156.1       155.0       153.8       152.6       151.3       150.0    
   9    179.7       179.7       179.7       179.6       179.5       179.4       179.3       179.1       178.9       178.7    
        178.5       178.2       178.0       177.7       177.4       177.0       176.7       176.3       175.9       175.4    
        175.0       174.5       174.0       173.5       172.9       172.3       171.7       171.1       170.4       169.8    
        169.1       168.3       167.6       166.8       166.0       165.1       164.2       163.3       162.4       161.4    
        160.4       159.4       158.4       157.3       156.1       155.0       153.8       152.6       151.3       150.0    
  10    179.7       179.7       179.7       179.6       179.5       179.4       179.3       179.1       178.9       178.7    
        178.5       178.2       178.0       177.7       177.4       177.0       176.7       176.3       175.9       175.4    
        175.0       174.5       174.0       173.5       172.9       172.3       171.7       171.1       170.4       169.8    
        169.1       168.3       167.6       166.8       166.0       165.1       164.2       163.3       162.4       161.4    
        160.4       159.4       158.4       157.3       156.1       155.0       153.8       152.6       151.3       150.0    
  11    179.7       179.7       179.7       179.6       179.5       179.4       179.3       179.1       178.9       178.7    
        178.5       178.2       178.0       177.7       177.4       177.0       176.7       176.3       175.9       175.4    
        175.0       174.5       174.0       173.5       172.9       172.3       171.7       171.1       170.4       169.8    
        169.1       168.3       167.6       166.8       166.0       165.1       164.2       163.3       162.4       161.4    
        160.4       159.4       158.4       157.3       156.1       155.0       153.8       152.6       151.3       150.0    
  12    179.7       179.7       179.7       179.6       179.5       179.4       179.3       179.1       178.9       178.7    
        178.5       178.2       178.0       177.7       177.4       177.0       176.7       176.3       175.9       175.4    
        175.0       174.5       174.0       173.5       172.9       172.3       171.7       171.1       170.4       169.8    
        169.1       168.3       167.6       166.8       166.0       165.1       164.2       163.3       162.4       161.4    
        160.4       159.4       158.4       157.3       156.1       155.0       153.8       152.6       151.3       150.0    
  13    179.7       179.7       179.7       179.6       179.5       179.4       179.3       179.1       178.9       178.7    
        178.5       178.2       178.0       177.7       177.4       177.0       176.7       176.3       175.9       175.4    
        175.0       174.5       174.0       173.5       172.9       172.3       171.7       171.1       170.4       169.8    
        169.1       168.3       167.6       166.8       166.0       165.1       164.2       163.3       162.4       161.4    
        160.4       159.4       158.4       157.3       156.1       155.0       153.8       152.6       151.3       150.0    
  14    179.7       179.7       179.7       179.6       179.5       179.4       179.3       179.1       178.9       178.7    
        178.5       178.2       178.0       177.7       177.4       177.0       176.7       176.3       175.9       175.4    
        175.0       174.5       174.0       173.5       172.9       172.3       171.7       171.1       170.4       169.8    
        169.1       168.3       167.6       166.8       166.0       165.1       164.2       163.3       162.4       161.4    
        160.4       159.4       158.4       157.3       156.1       155.0       153.8       152.6       151.3       150.0    
  15    179.7       179.7       179.7       179.6       179.5       179.4       179.3       179.1       178.9       178.7    
        178.5       178.2       178.0       177.7       177.4       177.0       176.7       176.3       175.9       175.4    
        175.0       174.5       174.0       173.5       172.9       172.3       171.7       171.1       170.4       169.8    
        169.1       168.3       167.6       166.8       166.0       165.1       164.2       163.3       162.4       161.4    
        160.4       159.4       158.4       157.3       156.1       155.0       153.8       152.6       151.3       150.0    
  16    179.7       179.7       179.7       179.6       179.5       179.4       179.3       179.1       178.9       178.7    
        178.5       178.2       178.0       177.7       177.4       177.0       176.7       176.3       175.9       175.4    
        175.0       174.5       174.0       173.5       172.9       172.3       171.7       171.1       170.4       169.8    
        169.1       168.3       167.6       166.8       166.0       165.1       164.2       163.3       162.4       161.4    
        160.4       159.4       158.4       157.3       156.1       155.0       153.8       152.6       151.3       150.0    
  17    179.7       179.7       179.7       179.6       179.5       179.4       179.3       179.1       178.9       178.7    
        178.5       178.2       178.0       177.7       177.4       177.0       176.7       176.3       175.9       175.4    
        175.0       174.5       174.0       173.5       172.9       172.3       171.7       171.1       170.4       169.8    
        169.1       168.3       167.6       166.8       166.0       165.1       164.2       163.3       162.4       161.4    
        160.4       159.4       158.4       157.3       156.1       155.0       153.8       152.6       151.3       150.0    
  18    179.7       179.7       179.7       179.6       179.5       179.4       179.3       179.1       178.9       178.7    
        178.5       178.2       178.0       177.7       177.4       177.0       176.7       176.3       175.9       175.4    
        175.0       174.5       174.0       173.5       172.9       172.3       171.7       171.1       170.4       169.8    
        169.1       168.3       167.6       166.8       166.0       165.1       164.2       163.3       162.4       161.4    
        160.4       159.4       158.4       157.3       156.1       155.0       153.8       152.6       151.3       150.0    
  19    179.7       179.7       179.7       179.6       179.5       179.4       179.3       179.1       178.9       178.7    
        178.5       178.2       178.0       177.7       177.4       177.0       176.7       176.3       175.9       175.4    
        175.0       174.5       174.0       173.5       172.9       172.3       171.7       171.1       170.4       169.8    
        169.1       168.3       167.6       166.8       166.0       165.1       164.2       163.3       162.4       161.4    
        160.4       159.4       158.4       157.3       156.1       155.0       153.8       152.6       151.3       150.0    
  20    179.7       179.7       179.7       179.6       179.5       179.4       179.3       179.1       178.9       178.7    
        178.5       178.2       178.0       177.7       177.4       177.0       176.7       176.3       175.9       175.4    
        175.0       174.5       174.0       173.5       172.9       172.3       171.7       171.1       170.4       169.8    
        169.1       168.3       167.6       166.8       166.0       165.1       164.2       163.3       162.4       161.4    
        160.4       159.4       158.4       157.3       156.1       155.0       153.8       152.6       151.3       150.0    
  21    179.7       179.7       179.7       179.6       179.5       179.4       179.3       179.1       178.9       178.7    
        178.5       178.2       178.0       177.7       177.4       177.0       176.7       176.3       175.9       175.4    
        175.0       174.5       174.0       173.5       172.9       172.3       171.7       171.1       170.4       169.8    
        169.1       168.3       167.6       166.8       166.0       165.1       164.2       163.3       162.4       161.4    
        160.4       159.4       158.4       157.3       156.1       155.0       153.8       152.6       151.3       150.0    
  22    179.7       179.7       179.7       179.6       179.5       179.4       179.3       179.1       178.9       178.7    
        178.5       178.2       178.0       177.7       177.4       177.0       176.7       176.3       175.9       175.4    
        175.0       174.5       174.0       173.5       172.9       172.3       171.7       171.1       170.4       169.8    
        169.1       168.3       167.6       166.8       166.0       165.1       164.2       163.3       162.4       161.4    
        160.4       159.4       158.4       157.3       156.1       155.0       153.8       152.6       151.3       150.0    
  23    179.7       179.7       179.7       179.6       179.5       179.4       179.3       179.1       178.9       178.7    
        178.5       178.2       178.0       177.7       177.4       177.0       176.7       176.3       175.9       175.4    
        175.0       174.5       174.0       173.5       172.9       172.3       171.7       171.1       170.4       169.8    
        169.1       168.3       167.6       166.8       166.0       165.1       164.2       163.3       162.4       161.4    
        160.4       159.4       158.4       157.3       156.1       155.0       153.8       152.6       151.3       150.0    
  24    179.7       179.7       179.7       179.6       179.5       179.4       179.3       179.1       178.9       178.7    
        178.5       178.2       178.0       177.7       177.4       177.0       176.7       176.3       175.9       175.4    
        175.0       174.5       174.0       173.5       172.9       172.3       171.7       171.1       170.4       169.8    
        169.1       168.3       167.6       166.8       166.0       165.1       164.2       163.3       162.4       161.4    
        160.4       159.4       158.4       157.3       156.1       155.0       153.8       152.6       151.3       150.0    
  25    179.7       179.7       179.7       179.6       179.5       179.4       179.3       179.1       178.9       178.7    
        178.5       178.2       178.0       177.7       177.4       177.0       176.7       176.3       175.9       175.4    
        175.0       174.5       174.0       173.5       172.9       172.3       171.7       171.1       170.4       169.8    
        169.1       168.3       167.6       166.8       166.0       165.1       164.2       163.3       162.4       161.4    
        160.4       159.4       158.4       157.3       156.1       155.0       153.8       152.6       151.3       150.0    
  26    179.7       179.7       179.7       179.6       179.5       179.4       179.3       179.1       178.9       178.7    
        178.5       178.2       178.0       177.7       177.4       177.0       176.7       176.3       175.9       175.4    
        175.0       174.5       174.0       173.5       172.9       172.3       171.7       171.1       170.4       169.8    
        169.1       168.3       167.6       166.8       166.0       165.1       164.2       163.3       162.4       161.4    
        160.4       159.4       158.4       157.3       156.1       155.0       153.8       152.6       151.3       150.0    
  27    179.7       179.7       179.7       179.6       179.5       179.4       179.3       179.1       178.9       178.7    
        178.5       178.2       178.0       177.7       177.4       177.0       176.7       176.3       175.9       175.4    
        175.0       174.5       174.0       173.5       172.9       172.3       171.7       171.1       170.4       169.8    
        169.1       168.3       167.6       166.8       166.0       165.1       164.2       163.3       162.4       161.4    
        160.4       159.4       158.4       157.3       156.1       155.0       153.8       152.6       151.3       150.0    
  28    179.7       179.7       179.7       179.6       179.5       179.4       179.3       179.1       178.9       178.7    
        178.5       178.2       178.0       177.7       177.4       177.0       176.7       176.3       175.9       175.4    
        175.0       174.5       174.0       173.5       172.9       172.3       171.7       171.1       170.4       169.8    
        169.1       168.3       167.6       166.8       166.0       165.1       164.2       163.3       162.4       161.4    
        160.4       159.4       158.4       157.3       156.1       155.0       153.8       152.6       151.3       150.0    
  29    179.7       179.7       179.7       179.6       179.5       179.4       179.3       179.1       178.9       178.7    
        178.5       178.2       178.0       177.7       177.4       177.0       176.7       176.3       175.9       175.4    
        175.0       174.5       174.0       173.5       172.9       172.3       171.7       171.1       170.4       169.8    
        169.1       168.3       167.6       166.8       166.0       165.1       164.2       163.3       162.4       161.4    
        160.4       159.4       158.4       157.3       156.1       155.0       153.8       152.6       151.3       150.0    
  30    179.7       179.7       179.7       179.6       179.5       179.4       179.3       179.1       178.9       178.7    
        178.5       178.2       178.0       177.7       177.4       177.0       176.7       176.3       175.9       175.4    
        175.0       174.5       174.0       173.5       172.9       172.3       171.7       171.1       170.4       169.8    
        169.1       168.3       167.6       166.8       166.0       165.1       164.2       163.3       162.4       161.4    
        160.4       159.4       158.4       157.3       156.1       155.0       153.8       152.6       151.3       150.0    
  31    179.7       179.7       179.7       179.6       179.5       179.4       179.3       179.1       178.9       178.7    
        178.5       178.2       178.0       177.7       177.4       177.0       176.7       176.3       175.9       175.4    
        175.0       174.5       174.0       173.5       172.9       172.3       171.7       171.1       170.4       169.8    
        169.1       168.3       167.6       166.8       166.0       165.1       164.2       163.3       162.4       161.4    
        160.4       159.4       158.4       157.3       156.1       155.0       153.8       152.6       151.3       150.0    
  32    179.7       179.7       179.7       179.6       179.5       179.4       179.3       179.1       178.9       178.7    
        178.5       178.2       178.0       177.7       177.4       177.0       176.7       176.3       175.9       175.4    
        175.0       174.5       174.0       173.5       172.9       172.3       171.7       171.1       170.4       169.8    
        169.1       168.3       167.6       166.8       166.0       165.1       164.2       163.3       162.4       161.4    
        160.4       159.4       158.4       157.3       156.1       155.0       153.8       152.6       151.3       150.0    
  33    179.7       179.7       179.7       179.6       179.5       179.4       179.3       179.1       178.9       178.7    
        178.5       178.2       178.0       177.7       177.4       177.0       176.7       176.3       175.9       175.4    
        175.0       174.5       174.0       173.5       172.9       172.3       171.7       171.1       170.4       169.8    
        169.1       168.3       167.6       166.8       166.0       165.1       164.2       163.3       162.4       161.4    
        160.4       159.4       158.4       157.3       156.1       155.0       153.8       152.6       151.3       150.0    
  34    179.7       179.7       179.7       179.6       179.5       179.4       179.3       179.1       178.9       178.7    
        178.5       178.2       178.0       177.7       177.4       177.0       176.7       176.3       175.9       175.4    
        175.0       174.5       174.0       173.5       172.9       172.3       171.7       171.1       170.4       169.8    
        169.1       168.3       167.6       166.8       166.0       165.1       164.2       163.3       162.4       161.4    
        160.4       159.4       158.4       157.3       156.1       155.0       153.8       152.6       151.3       150.0    
  35    179.7       179.7       179.7       179.6       179.5       179.4       179.3       179.1       178.9       178.7    
        178.5       178.2       178.0       177.7       177.4       177.0       176.7       176.3       175.9       175.4    
        175.0       174.5       174.0       173.5       172.9       172.3       171.7       171.1       170.4       169.8    
        169.1       168.3       167.6       166.8       166.0       165.1       164.2       163.3       162.4       161.4    
        160.4       159.4       158.4       157.3       156.1       155.0       153.8       152.6       151.3       150.0    
  36    179.7       179.7       179.7       179.6       179.5       179.4       179.3       179.1       178.9       178.7    
        178.5       178.2       178.0       177.7       177.4       177.0       176.7       176.3       175.9       175.4    
        175.0       174.5       174.0       173.5       172.9       172.3       171.7       171.1       170.4       169.8    
        169.1       168.3       167.6       166.8       166.0       165.1       164.2       163.3       162.4       161.4    
        160.4       159.4       158.4       157.3       156.1       155.0       153.8       152.6       151.3       150.0    
  37    179.7       179.7       179.7       179.6       179.5       179.4       179.3       179.1       178.9       178.7    
        178.5       178.2       178.0       177.7       177.4       177.0       176.7       176.3       175.9       175.4    
        175.0       174.5       174.0       173.5       172.9       172.3       171.7       171.1       170.4       169.8    
        169.1       168.3       167.6       166.8       166.0       165.1       164.2       163.3       162.4       161.4    
        160.4       159.4       158.4       157.3       156.1       155.0       153.8       152.6       151.3       150.0    
  38    179.7       179.7       179.7       179.6       179.5       179.4       179.3       179.1       178.9       178.7    
        178.5       178.2       178.0       177.7       177.4       177.0       176.7       176.3       175.9       175.4    
        175.0       174.5       174.0       173.5       172.9       172.3       171.7       171.1       170.4       169.8    
        169.1       168.3       167.6       166.8       166.0       165.1       164.2       163.3       162.4       161.4    
        160.4       159.4       158.4       157.3       156.1       155.0       153.8       152.6       151.3       150.0    
  39    179.7       179.7       179.7       179.6       179.5       179.4       179.3       179.1       178.9       178.7    
        178.5       178.2       178.0       177.7       177.4       177.0       176.7       176.3       175.9       175.4    
        175.0       174.5       174.0       173.5       172.9       172.3       171.7       171.1       170.4       169.8    
        169.1       168.3       167.6       166.8       166.0       165.1       164.2       163.3       162.4       161.4    
        160.4       159.4       158.4       157.3       156.1       155.0       153.8       152.6       151.3       150.0    
  40    179.7       179.7       179.7       179.6       179.5       179.4       179.3       179.1       178.9       178.7    
        178.5       178.2       178.0       177.7       177.4       177.0       176.7       176.3       175.9       175.4    
        175.0       174.5       174.0       173.5       172.9       172.3       171.7       171.1       170.4       169.8    
        169.1       168.3       167.6       166.8       166.0       165.1       164.2       163.3       162.4       161.4    
        160.4       159.4       158.4       157.3       156.1       155.0       153.8       152.6       151.3       150.0    

 HEAD WILL BE SAVED ON UNIT   51 AT END OF TIME STEP   1, STRESS PERIOD    1
1
          DRAWDOWN IN LAYER   1 AT END OF TIME STEP   1 IN STRESS PERIOD    1
  ---------------------------------------------------------------------------

            1           2           3           4           5           6           7           8           9          10
           11          12          13          14          15          16          17          18          19          20
           21          22          23          24          25          26          27          28          29          30
           31          32          33          34          35          36          37          38          39          40
           41          42          43          44          45          46          47          48          49          50
 ........................................................................................................................
   1    20.28       20.30       20.34       20.41       20.50       20.61       20.75       20.90       21.08       21.28    
        21.51       21.75       22.02       22.31       22.63       22.97       23.33       23.72       24.12       24.56    
        25.01       25.49       26.00       26.53       27.08       27.66       28.27       28.90       29.55       30.24    
        30.94       31.68       32.44       33.23       34.05       34.89       35.77       36.67       37.61       38.57    
        39.56       40.59       41.65       42.74       43.86       45.02       46.21       47.44       48.70       0.000    
   2    20.28       20.30       20.34       20.41       20.50       20.61       20.75       20.90       21.08       21.28    
        21.51       21.75       22.02       22.31       22.63       22.97       23.33       23.72       24.12       24.56    
        25.01       25.49       26.00       26.53       27.08       27.66       28.27       28.90       29.55       30.24    
        30.94       31.68       32.44       33.23       34.05       34.89       35.77       36.67       37.61       38.57    
        39.56       40.59       41.65       42.74       43.86       45.02       46.21       47.44       48.70       0.000    
   3    20.28       20.30       20.34       20.41       20.50       20.61       20.75       20.90       21.08       21.28    
        21.51       21.75       22.02       22.31       22.63       22.97       23.33       23.72       24.12       24.56    
        25.01       25.49       26.00       26.53       27.08       27.66       28.27       28.90       29.55       30.24    
        30.94       31.68       32.44       33.23       34.05       34.89       35.77       36.67       37.61       38.57    
        39.56       40.59       41.65       42.74       43.86       45.02       46.21       47.44       48.70       0.000    
   4    20.28       20.30       20.34       20.41       20.50       20.61       20.75       20.90       21.08       21.28    
        21.51       21.75       22.02       22.31       22.63       22.97       23.33       23.72       24.12       24.56    
        25.01       25.49       26.00       26.53       27.08       27.66       28.27       28.90       29.55       30.24    
        30.94       31.68       32.44       33.23       34.05       34.89       35.77       36.67       37.61       38.57    
        39.56       40.59       41.65       42.74       43.86       45.02       46.21       47.44       48.70       0.000    
   5    20.28       20.30       20.34       20.41       20.50       20.61       20.75       20.90       21.08       21.28    
        21.51       21.75       22.02       22.31       22.63       22.97       23.33       23.72       24.12       24.56    
        25.01       25.49       26.00       26.53       27.08       27.66       28.27       28.90       29.55       30.24    
        30.94       31.68       32.44       33.23       34.05       34.89       35.77       36.67       37.61       38.57    
        39.56       40.59       41.65       42.74       43.86       45.02       46.21       47.44       48.70       0.000    
   6    20.28       20.30       20.34       20.41       20.50       20.61       20.75       20.90       21.08       21.28    
        21.51       21.75       22.02       22.31       22.63       22.97       23.33       23.72       24.12       24.56    
        25.01       25.49       26.00       26.53       27.08       27.66       28.27       28.90       29.55       30.24    
        30.94       31.68       32.44       33.23       34.05       34.89       35.77       36.67       37.61       38.57    
        39.56       40.59       41.65       42.74       43.86       45.02       46.21       47.44       48.70       0.000    
   7    20.28       20.30       20.34       20.41       20.50       20.61       20.75       20.90       21.08       21.28    
        21.51       21.75       22.02       22.31       22.63       22.97       23.33       23.72       24.12       24.56    
        25.01       25.49       26.00       26.53       27.08       27.66       28.27       28.90       29.55       30.24    
        30.94       31.68       32.44       33.23       34.05       34.89       35.77       36.67       37.61       38.57    
        39.56       40.59       41.65       42.74       43.86       45.02       46.21       47.44       48.70       0.000    
   8    20.28       20.30       20.34       20.41       20.50       20.61       20.75       20.90       21.08       21.28    
        21.51       21.75       22.02       22.31       22.63       22.97       23.33       23.72       24.12       24.56    
        25.01       25.49       26.00       26.53       27.08       27.66       28.27       28.90       29.55       30.24    
        30.94       31.68       32.44       33.23       34.05       34.89       35.77       36.67       37.61       38.57    
        39.56       40.59       41.65       42.74       43.86       45.02       46.21       47.44       48.70       0.000    
   9    20.28       20.30       20.34       20.41       20.50       20.61       20.75       20.90       21.08       21.28    
        21.51       21.75       22.02       22.31       22.63       22.97       23.33       23.72       24.12       24.56    
        25.01       25.49       26.00       26.53       27.08       27.66       28.27       28.90       29.55       30.24    
        30.94       31.68       32.44       33.23       34.05       34.89       35.77       36.67       37.61       38.57    
        39.56       40.59       41.65       42.74       43.86       45.02       46.21       47.44       48.70       0.000    
  10    20.28       20.30       20.34       20.41       20.50       20.61       20.75       20.90       21.08       21.28    
        21.51       21.75       22.02       22.31       22.63       22.97       23.33       23.72       24.12       24.56    
        25.01       25.49       26.00       26.53       27.08       27.66       28.27       28.90       29.55       30.24    
        30.94       31.68       32.44       33.23       34.05       34.89       35.77       36.67       37.61       38.57    
        39.56       40.59       41.65       42.74       43.86       45.02       46.21       47.44       48.70       0.000    
  11    20.28       20.30       20.34       20.41       20.50       20.61       20.75       20.90       21.08       21.28    
        21.51       21.75       22.02       22.31       22.63       22.97       23.33       23.72       24.12       24.56    
        25.01       25.49       26.00       26.53       27.08       27.66       28.27       28.90       29.55       30.24    
        30.94       31.68       32.44       33.23       34.05       34.89       35.77       36.67       37.61       38.57    
        39.56       40.59       41.65       42.74       43.86       45.02       46.21       47.44       48.70       0.000    
  12    20.28       20.30       20.34       20.41       20.50       20.61       20.75       20.90       21.08       21.28    
        21.51       21.75       22.02       22.31       22.63       22.97       23.33       23.72       24.12       24.56    
        25.01       25.49       26.00       26.53       27.08       27.66       28.27       28.90       29.55       30.24    
        30.94       31.68       32.44       33.23       34.05       34.89       35.77       36.67       37.61       38.57    
        39.56       40.59       41.65       42.74       43.86       45.02       46.21       47.44       48.70       0.000    
  13    20.28       20.30       20.34       20.41       20.50       20.61       20.75       20.90       21.08       21.28    
        21.51       21.75       22.02       22.31       22.63       22.97       23.33       23.72       24.12       24.56    
        25.01       25.49       26.00       26.53       27.08       27.66       28.27       28.90       29.55       30.24    
        30.94       31.68       32.44       33.23       34.05       34.89       35.77       36.67       37.61       38.57    
        39.56       40.59       41.65       42.74       43.86       45.02       46.21       47.44       48.70       0.000    
  14    20.28       20.30       20.34       20.41       20.50       20.61       20.75       20.90       21.08       21.28    
        21.51       21.75       22.02       22.31       22.63       22.97       23.33       23.72       24.12       24.56    
        25.01       25.49       26.00       26.53       27.08       27.66       28.27       28.90       29.55       30.24    
        30.94       31.68       32.44       33.23       34.05       34.89       35.77       36.67       37.61       38.57    
        39.56       40.59       41.65       42.74       43.86       45.02       46.21       47.44       48.70       0.000    
  15    20.28       20.30       20.34       20.41       20.50       20.61       20.75       20.90       21.08       21.28    
        21.51       21.75       22.02       22.31       22.63       22.97       23.33       23.72       24.12       24.56    
        25.01       25.49       26.00       26.53       27.08       27.66       28.27       28.90       29.55       30.24    
        30.94       31.68       32.44       33.23       34.05       34.89       35.77       36.67       37.61       38.57    
        39.56       40.59       41.65       42.74       43.86       45.02       46.21       47.44       48.70       0.000    
  16    20.28       20.30       20.34       20.41       20.50       20.61       20.75       20.90       21.08       21.28    
        21.51       21.75       22.02       22.31       22.63       22.97       23.33       23.72       24.12       24.56    
        25.01       25.49       26.00       26.53       27.08       27.66       28.27       28.90       29.55       30.24    
        30.94       31.68       32.44       33.23       34.05       34.89       35.77       36.67       37.61       38.57    
        39.56       40.59       41.65       42.74       43.86       45.02       46.21       47.44       48.70       0.000    
  17    20.28       20.30       20.34       20.41       20.50       20.61       20.75       20.90       21.08       21.28    
        21.51       21.75       22.02       22.31       22.63       22.97       23.33       23.72       24.12       24.56    
        25.01       25.49       26.00       26.53       27.08       27.66       28.27       28.90       29.55       30.24    
        30.94       31.68       32.44       33.23       34.05       34.89       35.77       36.67       37.61       38.57    
        39.56       40.59       41.65       42.74       43.86       45.02       46.21       47.44       48.70       0.000    
  18    20.28       20.30       20.34       20.41       20.50       20.61       20.75       20.90       21.08       21.28    
        21.51       21.75       22.02       22.31       22.63       22.97       23.33       23.72       24.12       24.56    
        25.01       25.49       26.00       26.53       27.08       27.66       28.27       28.90       29.55       30.24    
        30.94       31.68       32.44       33.23       34.05       34.89       35.77       36.67       37.61       38.57    
        39.56       40.59       41.65       42.74       43.86       45.02       46.21       47.44       48.70       0.000    
  19    20.28       20.30       20.34       20.41       20.50       20.61       20.75       20.90       21.08       21.28    
        21.51       21.75       22.02       22.31       22.63       22.97       23.33       23.72       24.12       24.56    
        25.01       25.49       26.00       26.53       27.08       27.66       28.27       28.90       29.55       30.24    
        30.94       31.68       32.44       33.23       34.05       34.89       35.77       36.67       37.61       38.57    
        39.56       40.59       41.65       42.74       43.86       45.02       46.21       47.44       48.70       0.000    
  20    20.28       20.30       20.34       20.41       20.50       20.61       20.75       20.90       21.08       21.28    
        21.51       21.75       22.02       22.31       22.63       22.97       23.33       23.72       24.12       24.56    
        25.01       25.49       26.00       26.53       27.08       27.66       28.27       28.90       29.55       30.24    
        30.94       31.68       32.44       33.23       34.05       34.89       35.77       36.67       37.61       38.57    
        39.56       40.59       41.65       42.74       43.86       45.02       46.21       47.44       48.70       0.000    
  21    20.28       20.30       20.34       20.41       20.50       20.61       20.75       20.90       21.08       21.28    
        21.51       21.75       22.02       22.31       22.63       22.97       23.33       23.72       24.12       24.56    
        25.01       25.49       26.00       26.53       27.08       27.66       28.27       28.90       29.55       30.24    
        30.94       31.68       32.44       33.23       34.05       34.89       35.77       36.67       37.61       38.57    
        39.56       40.59       41.65       42.74       43.86       45.02       46.21       47.44       48.70       0.000    
  22    20.28       20.30       20.34       20.41       20.50       20.61       20.75       20.90       21.08       21.28    
        21.51       21.75       22.02       22.31       22.63       22.97       23.33       23.72       24.12       24.56    
        25.01       25.49       26.00       26.53       27.08       27.66       28.27       28.90       29.55       30.24    
        30.94       31.68       32.44       33.23       34.05       34.89       35.77       36.67       37.61       38.57    
        39.56       40.59       41.65       42.74       43.86       45.02       46.21       47.44       48.70       0.000    
  23    20.28       20.30       20.34       20.41       20.50       20.61       20.75       20.90       21.08       21.28    
        21.51       21.75       22.02       22.31       22.63       22.97       23.33       23.72       24.12       24.56    
        25.01       25.49       26.00       26.53       27.08       27.66       28.27       28.90       29.55       30.24    
        30.94       31.68       32.44       33.23       34.05       34.89       35.77       36.67       37.61       38.57    
        39.56       40.59       41.65       42.74       43.86       45.02       46.21       47.44       48.70       0.000    
  24    20.28       20.30       20.34       20.41       20.50       20.61       20.75       20.90       21.08       21.28    
        21.51       21.75       22.02       22.31       22.63       22.97       23.33       23.72       24.12       24.56    
        25.01       25.49       26.00       26.53       27.08       27.66       28.27       28.90       29.55       30.24    
        30.94       31.68       32.44       33.23       34.05       34.89       35.77       36.67       37.61       38.57    
        39.56       40.59       41.65       42.74       43.86       45.02       46.21       47.44       48.70       0.000    
  25    20.28       20.30       20.34       20.41       20.50       20.61       20.75       20.90       21.08       21.28    
        21.51       21.75       22.02       22.31       22.63       22.97       23.33       23.72       24.12       24.56    
        25.01       25.49       26.00       26.53       27.08       27.66       28.27       28.90       29.55       30.24    
        30.94       31.68       32.44       33.23       34.05       34.89       35.77       36.67       37.61       38.57    
        39.56       40.59       41.65       42.74       43.86       45.02       46.21       47.44       48.70       0.000    
  26    20.28       20.30       20.34       20.41       20.50       20.61       20.75       20.90       21.08       21.28    
        21.51       21.75       22.02       22.31       22.63       22.97       23.33       23.72       24.12       24.56    
        25.01       25.49       26.00       26.53       27.08       27.66       28.27       28.90       29.55       30.24    
        30.94       31.68       32.44       33.23       34.05       34.89       35.77       36.67       37.61       38.57    
        39.56       40.59       41.65       42.74       43.86       45.02       46.21       47.44       48.70       0.000    
  27    20.28       20.30       20.34       20.41       20.50       20.61       20.75       20.90       21.08       21.28    
        21.51       21.75       22.02       22.31       22.63       22.97       23.33       23.72       24.12       24.56    
        25.01       25.49       26.00       26.53       27.08       27.66       28.27       28.90       29.55       30.24    
        30.94       31.68       32.44       33.23       34.05       34.89       35.77       36.67       37.61       38.57    
        39.56       40.59       41.65       42.74       43.86       45.02       46.21       47.44       48.70       0.000    
  28    20.28       20.30       20.34       20.41       20.50       20.61       20.75       20.90       21.08       21.28    
        21.51       21.75       22.02       22.31       22.63       22.97       23.33       23.72       24.12       24.56    
        25.01       25.49       26.00       26.53       27.08       27.66       28.27       28.90       29.55       30.24    
        30.94       31.68       32.44       33.23       34.05       34.89       35.77       36.67       37.61       38.57    
        39.56       40.59       41.65       42.74       43.86       45.02       46.21       47.44       48.70       0.000    
  29    20.28       20.30       20.34       20.41       20.50       20.61       20.75       20.90       21.08       21.28    
        21.51       21.75       22.02       22.31       22.63       22.97       23.33       23.72       24.12       24.56    
        25.01       25.49       26.00       26.53       27.08       27.66       28.27       28.90       29.55       30.24    
        30.94       31.68       32.44       33.23       34.05       34.89       35.77       36.67       37.61       38.57    
        39.56       40.59       41.65       42.74       43.86       45.02       46.21       47.44       48.70       0.000    
  30    20.28       20.30       20.34       20.41       20.50       20.61       20.75       20.90       21.08       21.28    
        21.51       21.75       22.02       22.31       22.63       22.97       23.33       23.72       24.12       24.56    
        25.01       25.49       26.00       26.53       27.08       27.66       28.27       28.90       29.55       30.24    
        30.94       31.68       32.44       33.23       34.05       34.89       35.77       36.67       37.61       38.57    
        39.56       40.59       41.65       42.74       43.86       45.02       46.21       47.44       48.70       0.000    
  31    20.28       20.30       20.34       20.41       20.50       20.61       20.75       20.90       21.08       21.28    
        21.51       21.75       22.02       22.31       22.63       22.97       23.33       23.72       24.12       24.56    
        25.01       25.49       26.00       26.53       27.08       27.66       28.27       28.90       29.55       30.24    
        30.94       31.68       32.44       33.23       34.05       34.89       35.77       36.67       37.61       38.57    
        39.56       40.59       41.65       42.74       43.86       45.02       46.21       47.44       48.70       0.000    
  32    20.28       20.30       20.34       20.41       20.50       20.61       20.75       20.90       21.08       21.28    
        21.51       21.75       22.02       22.31       22.63       22.97       23.33       23.72       24.12       24.56    
        25.01       25.49       26.00       26.53       27.08       27.66       28.27       28.90       29.55       30.24    
        30.94       31.68       32.44       33.23       34.05       34.89       35.77       36.67       37.61       38.57    
        39.56       40.59       41.65       42.74       43.86       45.02       46.21       47.44       48.70       0.000    
  33    20.28       20.30       20.34       20.41       20.50       20.61       20.75       20.90       21.08       21.28    
        21.51       21.75       22.02       22.31       22.63       22.97       23.33       23.72       24.12       24.56    
        25.01       25.49       26.00       26.53       27.08       27.66       28.27       28.90       29.55       30.24    
        30.94       31.68       32.44       33.23       34.05       34.89       35.77       36.67       37.61       38.57    
        39.56       40.59       41.65       42.74       43.86       45.02       46.21       47.44       48.70       0.000    
  34    20.28       20.30       20.34       20.41       20.50       20.61       20.75       20.90       21.08       21.28    
        21.51       21.75       22.02       22.31       22.63       22.97       23.33       23.72       24.12       24.56    
        25.01       25.49       26.00       26.53       27.08       27.66       28.27       28.90       29.55       30.24    
        30.94       31.68       32.44       33.23       34.05       34.89       35.77       36.67       37.61       38.57    
        39.56       40.59       41.65       42.74       43.86       45.02       46.21       47.44       48.70       0.000    
  35    20.28       20.30       20.34       20.41       20.50       20.61       20.75       20.90       21.08       21.28    
        21.51       21.75       22.02       22.31       22.63       22.97       23.33       23.72       24.12       24.56    
        25.01       25.49       26.00       26.53       27.08       27.66       28.27       28.90       29.55       30.24    
        30.94       31.68       32.44       33.23       34.05       34.89       35.77       36.67       37.61       38.57    
        39.56       40.59       41.65       42.74       43.86       45.02       46.21       47.44       48.70       0.000    
  36    20.28       20.30       20.34       20.41       20.50       20.61       20.75       20.90       21.08       21.28    
        21.51       21.75       22.02       22.31       22.63       22.97       23.33       23.72       24.12       24.56    
        25.01       25.49       26.00       26.53       27.08       27.66       28.27       28.90       29.55       30.24    
        30.94       31.68       32.44       33.23       34.05       34.89       35.77       36.67       37.61       38.57    
        39.56       40.59       41.65       42.74       43.86       45.02       46.21       47.44       48.70       0.000    
  37    20.28       20.30       20.34       20.41       20.50       20.61       20.75       20.90       21.08       21.28    
        21.51       21.75       22.02       22.31       22.63       22.97       23.33       23.72       24.12       24.56    
        25.01       25.49       26.00       26.53       27.08       27.66       28.27       28.90       29.55       30.24    
        30.94       31.68       32.44       33.23       34.05       34.89       35.77       36.67       37.61       38.57    
        39.56       40.59       41.65       42.74       43.86       45.02       46.21       47.44       48.70       0.000    
  38    20.28       20.30       20.34       20.41       20.50       20.61       20.75       20.90       21.08       21.28    
        21.51       21.75       22.02       22.31       22.63       22.97       23.33       23.72       24.12       24.56    
        25.01       25.49       26.00       26.53       27.08       27.66       28.27       28.90       29.55       30.24    
        30.94       31.68       32.44       33.23       34.05       34.89       35.77       36.67       37.61       38.57    
        39.56       40.59       41.65       42.74       43.86       45.02       46.21       47.44       48.70       0.000    
  39    20.28       20.30       20.34       20.41       20.50       20.61       20.75       20.90       21.08       21.28    
        21.51       21.75       22.02       22.31       22.63       22.97       23.33       23.72       24.12       24.56    
        25.01       25.49       26.00       26.53       27.08       27.66       28.27       28.90       29.55       30.24    
        30.94       31.68       32.44       33.23       34.05       34.89       35.77       36.67       37.61       38.57    
        39.56       40.59       41.65       42.74       43.86       45.02       46.21       47.44       48.70       0.000    
  40    20.28       20.30       20.34       20.41       20.50       20.61       20.75       20.90       21.08       21.28    
        21.51       21.75       22.02       22.31       22.63       22.97       23.33       23.72       24.12       24.56    
        25.01       25.49       26.00       26.53       27.08       27.66       28.27       28.90       29.55       30.24    
        30.94       31.68       32.44       33.23       34.05       34.89       35.77       36.67       37.61       38.57    
        39.56       40.59       41.65       42.74       43.86       45.02       46.21       47.44       48.70       0.000    

 DRAWDOWN WILL BE SAVED ON UNIT   52 AT END OF TIME STEP   1, STRESS PERIOD    1
1
  VOLUMETRIC BUDGET FOR ENTIRE MODEL AT END OF TIME STEP  1 IN STRESS PERIOD   1
  ------------------------------------------------------------------------------

     CUMULATIVE VOLUMES      L**3       RATES FOR THIS TIME STEP      L**3/T
     ------------------                 ------------------------

           IN:                                      IN:
           ---                                      ---
             STORAGE =           0.0000               STORAGE =           0.0000
       CONSTANT HEAD =           0.0000         CONSTANT HEAD =           0.0000
            RECHARGE =        7839.9995              RECHARGE =        7839.9995

            TOTAL IN =        7839.9995              TOTAL IN =        7839.9995

          OUT:                                     OUT:
          ----                                     ----
             STORAGE =           0.0000               STORAGE =           0.0000
       CONSTANT HEAD =        7840.0000         CONSTANT HEAD =        7840.0000
            RECHARGE =           0.0000              RECHARGE =           0.0000

           TOTAL OUT =        7840.0000             TOTAL OUT =        7840.0000

            IN - OUT =      -4.8828E-04              IN - OUT =      -4.8828E-04

 PERCENT DISCREPANCY =          -0.00     PERCENT DISCREPANCY =          -0.00






          TIME SUMMARY AT END OF TIME STEP   1 IN STRESS PERIOD    1
                    SECONDS     MINUTES      HOURS       DAYS        YEARS
                    -----------------------------------------------------------
   TIME STEP LENGTH  86400.      1440.0      24.000      1.0000     2.73785E-03
 STRESS PERIOD TIME  86400.      1440.0      24.000      1.0000     2.73785E-03
         TOTAL TIME  86400.      1440.0      24.000      1.0000     2.73785E-03
1
