                                  MODFLOW-2000
      U.S. GEOLOGICAL SURVEY MODULAR FINITE-DIFFERENCE GROUND-WATER FLOW MODEL
                           VERSION 1.19.01 03/25/2010


 This model run produced both GLOBAL and LIST files.  This is the LIST file.


 # BAS6 package for MODFLOW-2000 generated by Flopy 3.9.3                        
 THE FREE FORMAT OPTION HAS BEEN SELECTED
    1 LAYERS        40 ROWS        50 COLUMNS
    1 STRESS PERIOD(S) IN SIMULATION

 BAS6 -- BASIC PACKAGE, VERSION 6, 1/11/2000 INPUT READ FROM UNIT   13
          5 ELEMENTS IN IR ARRAY ARE USED BY BAS

 WEL6 -- WELL PACKAGE, VERSION 6, 1/11/2000 INPUT READ FROM UNIT   20
 # WEL package for MODFLOW-2000 generated by Flopy 3.9.3
 No named parameters
 MAXIMUM OF      1 ACTIVE WELLS AT ONE TIME
          4 ELEMENTS IN RX ARRAY ARE USED BY WEL

 RCH6 -- RECHARGE PACKAGE, VERSION 6, 1/11/2000 INPUT READ FROM UNIT   19
 # RCH package for MODFLOW-2000 generated by Flopy 3.9.3
 No named parameters
 OPTION 3 -- RECHARGE TO HIGHEST ACTIVE NODE IN EACH VERTICAL COLUMN
       2000 ELEMENTS IN RX ARRAY ARE USED BY RCH
       2000 ELEMENTS IN IR ARRAY ARE USED BY RCH

       2004  ELEMENTS OF RX ARRAY USED OUT OF       2004
          0  ELEMENTS OF RZ ARRAY USED OUT OF          1
       2005  ELEMENTS OF IR ARRAY USED OUT OF       2005
1
 # BAS6 package for MODFLOW-2000 generated by Flopy 3.9.3                        
                                                                                 



                     BOUNDARY ARRAY FOR LAYER   1
 READING ON UNIT   13 WITH FORMAT: (50I10)             

 AQUIFER HEAD WILL BE SET TO -999.99     AT ALL NO-FLOW NODES (IBOUND=0).



                       INITIAL HEAD FOR LAYER   1
 READING ON UNIT   13 WITH FORMAT: (50E15.6)           
 # OC package for MODFLOW-2000 generated by Flopy 3.9.3

 OUTPUT CONTROL IS SPECIFIED ONLY AT TIME STEPS FOR WHICH OUTPUT IS DESIRED
 COMPACT CELL-BY-CELL BUDGET FILES WILL BE WRITTEN
 AUXILIARY DATA WILL BE SAVED IN CELL-BY-CELL BUDGET FILES
 HEAD PRINT FORMAT CODE IS   0    DRAWDOWN PRINT FORMAT CODE IS   0
 HEADS WILL BE SAVED ON UNIT   51    DRAWDOWNS WILL BE SAVED ON UNIT   52
1
                            STRESS PERIOD NO.    1, LENGTH =   1.000000    
                            -----------------------------------------------

                              NUMBER OF TIME STEPS =     1

                               MULTIPLIER FOR DELT =     1.000

                            INITIAL TIME STEP SIZE =   1.000000    

 WELL NO.  LAYER   ROW   COL   STRESS RATE         
 --------------------------------------------------
      1      1     21     42      -8000.    

      1 WELL

                 RECHARGE =  1.000000E-02

 SOLVING FOR HEAD 

 OUTPUT CONTROL FOR STRESS PERIOD    1   TIME STEP   1
    PRINT HEAD FOR ALL LAYERS
    PRINT DRAWDOWN FOR ALL LAYERS
    SAVE HEAD FOR ALL LAYERS
    SAVE DRAWDOWN FOR ALL LAYERS
1
              HEAD IN LAYER   1 AT END OF TIME STEP   1 IN STRESS PERIOD    1
  ---------------------------------------------------------------------------

            1           2           3           4           5           6           7           8           9          10
           11          12          13          14          15          16          17          18          19          20
           21          22          23          24          25          26          27          28          29          30
           31          32          33          34          35          36          37          38          39          40
           41          42          43          44          45          46          47          48          49          50
 ........................................................................................................................
   1    170.6       170.6       170.6       170.5       170.4       170.3       170.2       170.0       169.8       169.6    
        169.4       169.1       168.9       168.6       168.3       167.9       167.6       167.2       166.8       166.4    
        165.9       165.5       165.0       164.5       164.0       163.5       162.9       162.4       161.8       161.2    
        160.6       160.1       159.5       158.9       158.3       157.7       157.1       156.6       156.0       155.4    
        154.9       154.3       153.8       153.3       152.8       152.2       151.7       151.1       150.6       150.0    
   2    170.6       170.6       170.6       170.5       170.4       170.3       170.2       170.0       169.8       169.6    
        169.4       169.1       168.9       168.6       168.3       167.9       167.6       167.2       166.8       166.4    
        165.9       165.5       165.0       164.5       164.0       163.4       162.9       162.3       161.8       161.2    
        160.6       160.0       159.4       158.9       158.3       157.7       157.1       156.5       156.0       155.4    
        154.8       154.3       153.8       153.3       152.7       152.2       151.7       151.1       150.6       150.0    
   3    170.6       170.6       170.6       170.5       170.4       170.3       170.2       170.0       169.8       169.6    
        169.4       169.1       168.9       168.6       168.3       167.9       167.6       167.2       166.8       166.4    
        165.9       165.4       165.0       164.5       164.0       163.4       162.9       162.3       161.7       161.2    
        160.6       160.0       159.4       158.8       158.2       157.6       157.0       156.4       155.9       155.3    
        154.8       154.2       153.7       153.2       152.7       152.2       151.6       151.1       150.6       150.0    
   4    170.6       170.6       170.6       170.5       170.4       170.3       170.2       170.0       169.8       169.6    
        169.4       169.1       168.9       168.6       168.2       167.9       167.5       167.2       166.8       166.3    
        165.9       165.4       164.9       164.4       163.9       163.4       162.8       162.3       161.7       161.1    
        160.5       159.9       159.3       158.7       158.1       157.5       156.9       156.3       155.8       155.2    
        154.7       154.1       153.6       153.1       152.6       152.1       151.6       151.1       150.5       150.0    
   5    170.6       170.6       170.6       170.5       170.4       170.3       170.2       170.0       169.8       169.6    
        169.4       169.1       168.9       168.6       168.2       167.9       167.5       167.1       166.7       166.3    
        165.9       165.4       164.9       164.4       163.9       163.3       162.8       162.2       161.6       161.0    
        160.4       159.8       159.2       158.6       158.0       157.4       156.8       156.2       155.6       155.1    
        154.5       154.0       153.5       153.0       152.5       152.0       151.5       151.0       150.5       150.0    
   6    170.6       170.6       170.6       170.5       170.4       170.3       170.1       170.0       169.8       169.6    
        169.4       169.1       168.8       168.5       168.2       167.9       167.5       167.1       166.7       166.3    
        165.8       165.4       164.9       164.4       163.8       163.3       162.7       162.1       161.5       160.9    
        160.3       159.7       159.1       158.4       157.8       157.2       156.6       156.0       155.4       154.9    
        154.3       153.8       153.3       152.8       152.3       151.9       151.4       151.0       150.5       150.0    
   7    170.6       170.6       170.6       170.5       170.4       170.3       170.1       170.0       169.8       169.6    
        169.4       169.1       168.8       168.5       168.2       167.9       167.5       167.1       166.7       166.3    
        165.8       165.3       164.8       164.3       163.8       163.2       162.6       162.0       161.4       160.8    
        160.2       159.6       158.9       158.3       157.6       157.0       156.4       155.8       155.2       154.6    
        154.1       153.6       153.1       152.6       152.2       151.7       151.3       150.9       150.5       150.0    
   8    170.6       170.6       170.6       170.5       170.4       170.3       170.1       170.0       169.8       169.6    
        169.4       169.1       168.8       168.5       168.2       167.8       167.5       167.1       166.7       166.2    
        165.8       165.3       164.8       164.3       163.7       163.1       162.5       161.9       161.3       160.7    
        160.0       159.4       158.7       158.1       157.4       156.7       156.1       155.5       154.9       154.3    
        153.8       153.3       152.8       152.4       151.9       151.5       151.2       150.8       150.4       150.0    
   9    170.6       170.6       170.5       170.5       170.4       170.3       170.1       170.0       169.8       169.6    
        169.3       169.1       168.8       168.5       168.2       167.8       167.5       167.1       166.6       166.2    
        165.7       165.2       164.7       164.2       163.6       163.1       162.5       161.8       161.2       160.5    
        159.9       159.2       158.5       157.8       157.1       156.5       155.8       155.1       154.5       154.0    
        153.4       152.9       152.5       152.0       151.7       151.3       151.0       150.7       150.3       150.0    
  10    170.6       170.6       170.5       170.5       170.4       170.3       170.1       170.0       169.8       169.6    
        169.3       169.1       168.8       168.5       168.2       167.8       167.4       167.0       166.6       166.2    
        165.7       165.2       164.7       164.1       163.6       163.0       162.3       161.7       161.1       160.4    
        159.7       159.0       158.3       157.6       156.8       156.1       155.4       154.8       154.1       153.5    
        153.0       152.5       152.1       151.7       151.3       151.0       150.8       150.5       150.3       150.0    
  11    170.6       170.6       170.5       170.5       170.4       170.3       170.1       170.0       169.8       169.6    
        169.3       169.1       168.8       168.5       168.1       167.8       167.4       167.0       166.6       166.1    
        165.6       165.1       164.6       164.0       163.5       162.9       162.2       161.6       160.9       160.2    
        159.5       158.8       158.0       157.3       156.5       155.7       155.0       154.3       153.6       153.0    
        152.5       152.0       151.6       151.2       150.9       150.7       150.5       150.4       150.2       150.0    
  12    170.6       170.6       170.5       170.5       170.4       170.3       170.1       169.9       169.8       169.5    
        169.3       169.0       168.8       168.5       168.1       167.8       167.4       167.0       166.5       166.1    
        165.6       165.1       164.5       164.0       163.4       162.8       162.1       161.5       160.8       160.0    
        159.3       158.5       157.7       156.9       156.1       155.3       154.5       153.8       153.1       152.4    
        151.8       151.4       151.0       150.7       150.5       150.3       150.2       150.1       150.1       150.0    
  13    170.6       170.6       170.5       170.5       170.4       170.2       170.1       169.9       169.7       169.5    
        169.3       169.0       168.7       168.4       168.1       167.7       167.4       166.9       166.5       166.0    
        165.5       165.0       164.5       163.9       163.3       162.7       162.0       161.3       160.6       159.8    
        159.1       158.3       157.4       156.6       155.7       154.9       154.0       153.2       152.4       151.7    
        151.1       150.6       150.3       150.0       149.9       149.9       149.9       149.9       150.0       150.0    
  14    170.6       170.6       170.5       170.5       170.4       170.2       170.1       169.9       169.7       169.5    
        169.3       169.0       168.7       168.4       168.1       167.7       167.3       166.9       166.5       166.0    
        165.5       165.0       164.4       163.8       163.2       162.6       161.9       161.2       160.4       159.7    
        158.8       158.0       157.1       156.2       155.3       154.3       153.4       152.5       151.6       150.9    
        150.2       149.7       149.4       149.3       149.2       149.3       149.5       149.6       149.8       150.0    
  15    170.6       170.6       170.5       170.4       170.4       170.2       170.1       169.9       169.7       169.5    
        169.3       169.0       168.7       168.4       168.1       167.7       167.3       166.9       166.4       166.0    
        165.5       164.9       164.4       163.8       163.1       162.5       161.8       161.1       160.3       159.5    
        158.6       157.7       156.8       155.8       154.8       153.8       152.8       151.7       150.7       149.8    
        149.1       148.6       148.3       148.3       148.4       148.7       149.0       149.3       149.7       150.0    
  16    170.6       170.6       170.5       170.4       170.3       170.2       170.1       169.9       169.7       169.5    
        169.3       169.0       168.7       168.4       168.1       167.7       167.3       166.9       166.4       165.9    
        165.4       164.9       164.3       163.7       163.1       162.4       161.7       160.9       160.1       159.3    
        158.4       157.5       156.5       155.5       154.4       153.2       152.0       150.9       149.7       148.6    
        147.8       147.2       147.0       147.2       147.5       148.0       148.5       149.0       149.5       150.0    
  17    170.6       170.6       170.5       170.4       170.3       170.2       170.1       169.9       169.7       169.5    
        169.3       169.0       168.7       168.4       168.0       167.7       167.3       166.8       166.4       165.9    
        165.4       164.8       164.3       163.7       163.0       162.3       161.6       160.8       160.0       159.2    
        158.2       157.3       156.2       155.1       153.9       152.7       151.3       149.9       148.5       147.2    
        146.1       145.4       145.3       145.7       146.4       147.1       147.9       148.6       149.3       150.0    
  18    170.6       170.6       170.5       170.4       170.3       170.2       170.1       169.9       169.7       169.5    
        169.3       169.0       168.7       168.4       168.0       167.7       167.3       166.8       166.4       165.9    
        165.4       164.8       164.2       163.6       163.0       162.3       161.5       160.7       159.9       159.0    
        158.1       157.1       156.0       154.8       153.5       152.1       150.6       149.0       147.2       145.4    
        143.9       142.9       143.2       144.0       145.1       146.3       147.3       148.3       149.2       150.0    
  19    170.6       170.5       170.5       170.4       170.3       170.2       170.1       169.9       169.7       169.5    
        169.2       169.0       168.7       168.4       168.0       167.6       167.2       166.8       166.4       165.9    
        165.3       164.8       164.2       163.6       162.9       162.2       161.5       160.7       159.8       158.9    
        158.0       156.9       155.8       154.5       153.2       151.7       150.0       148.1       145.9       143.4    
        140.9       139.2       140.2       142.0       143.8       145.4       146.8       148.0       149.0       150.0    
  20    170.6       170.5       170.5       170.4       170.3       170.2       170.1       169.9       169.7       169.5    
        169.2       169.0       168.7       168.4       168.0       167.6       167.2       166.8       166.3       165.8    
        165.3       164.8       164.2       163.6       162.9       162.2       161.4       160.6       159.8       158.9    
        157.9       156.8       155.7       154.4       153.0       151.4       149.5       147.4       144.7       141.3    
        137.1       132.6       136.3       140.0       142.7       144.8       146.4       147.8       148.9       150.0    
  21    170.6       170.5       170.5       170.4       170.3       170.2       170.1       169.9       169.7       169.5    
        169.2       169.0       168.7       168.4       168.0       167.6       167.2       166.8       166.3       165.8    
        165.3       164.8       164.2       163.5       162.9       162.2       161.4       160.6       159.8       158.8    
        157.8       156.8       155.6       154.3       152.9       151.3       149.4       147.1       144.2       140.0    
        133.0       116.5       132.3       138.7       142.2       144.5       146.3       147.7       148.9       150.0    
  22    170.6       170.5       170.5       170.4       170.3       170.2       170.1       169.9       169.7       169.5    
        169.2       169.0       168.7       168.3       168.0       167.6       167.2       166.8       166.3       165.8    
        165.3       164.8       164.2       163.5       162.9       162.2       161.4       160.6       159.8       158.9    
        157.9       156.8       155.6       154.4       153.0       151.4       149.5       147.3       144.7       141.3    
        137.0       132.6       136.3       140.0       142.7       144.8       146.4       147.8       148.9       150.0    
  23    170.6       170.5       170.5       170.4       170.3       170.2       170.1       169.9       169.7       169.5    
        169.2       169.0       168.7       168.3       168.0       167.6       167.2       166.8       166.3       165.8    
        165.3       164.8       164.2       163.6       162.9       162.2       161.5       160.7       159.8       158.9    
        157.9       156.9       155.8       154.5       153.2       151.7       150.0       148.0       145.8       143.4    
        140.9       139.2       140.2       142.0       143.8       145.4       146.8       148.0       149.0       150.0    
  24    170.6       170.5       170.5       170.4       170.3       170.2       170.1       169.9       169.7       169.5    
        169.2       169.0       168.7       168.4       168.0       167.6       167.2       166.8       166.3       165.9    
        165.3       164.8       164.2       163.6       162.9       162.2       161.5       160.7       159.9       159.0    
        158.0       157.0       155.9       154.8       153.5       152.1       150.6       148.9       147.2       145.4    
        143.8       142.9       143.1       144.0       145.1       146.3       147.3       148.3       149.2       150.0    
  25    170.6       170.5       170.5       170.4       170.3       170.2       170.1       169.9       169.7       169.5    
        169.2       169.0       168.7       168.4       168.0       167.6       167.2       166.8       166.4       165.9    
        165.4       164.8       164.2       163.6       163.0       162.3       161.6       160.8       160.0       159.1    
        158.2       157.2       156.2       155.1       153.9       152.6       151.3       149.9       148.5       147.1    
        146.0       145.4       145.3       145.7       146.4       147.1       147.9       148.6       149.3       150.0    
  26    170.6       170.5       170.5       170.4       170.3       170.2       170.1       169.9       169.7       169.5    
        169.2       169.0       168.7       168.4       168.0       167.6       167.2       166.8       166.4       165.9    
        165.4       164.8       164.3       163.7       163.0       162.3       161.6       160.9       160.1       159.3    
        158.4       157.4       156.4       155.4       154.3       153.2       152.0       150.8       149.6       148.6    
        147.7       147.2       147.0       147.1       147.5       147.9       148.5       149.0       149.5       150.0    
  27    170.6       170.5       170.5       170.4       170.3       170.2       170.1       169.9       169.7       169.5    
        169.2       169.0       168.7       168.4       168.0       167.7       167.3       166.8       166.4       165.9    
        165.4       164.9       164.3       163.7       163.1       162.4       161.7       161.0       160.2       159.4    
        158.6       157.7       156.7       155.8       154.8       153.7       152.7       151.6       150.7       149.8    
        149.1       148.6       148.3       148.3       148.4       148.7       149.0       149.3       149.7       150.0    
  28    170.6       170.5       170.5       170.4       170.3       170.2       170.1       169.9       169.7       169.5    
        169.2       169.0       168.7       168.4       168.0       167.7       167.3       166.9       166.4       165.9    
        165.4       164.9       164.4       163.8       163.1       162.5       161.8       161.1       160.4       159.6    
        158.8       157.9       157.0       156.1       155.2       154.3       153.3       152.4       151.6       150.8    
        150.1       149.7       149.4       149.2       149.2       149.3       149.4       149.6       149.8       150.0    
  29    170.6       170.5       170.5       170.4       170.3       170.2       170.1       169.9       169.7       169.5    
        169.3       169.0       168.7       168.4       168.0       167.7       167.3       166.9       166.4       166.0    
        165.5       165.0       164.4       163.8       163.2       162.6       161.9       161.2       160.5       159.8    
        159.0       158.2       157.3       156.5       155.6       154.8       153.9       153.1       152.3       151.6    
        151.0       150.5       150.2       150.0       149.9       149.8       149.8       149.9       150.0       150.0    
  30    170.6       170.5       170.5       170.4       170.3       170.2       170.1       169.9       169.7       169.5    
        169.3       169.0       168.7       168.4       168.1       167.7       167.3       166.9       166.5       166.0    
        165.5       165.0       164.5       163.9       163.3       162.7       162.0       161.3       160.6       159.9    
        159.2       158.4       157.6       156.8       156.0       155.2       154.4       153.7       153.0       152.3    
        151.8       151.3       150.9       150.6       150.4       150.3       150.2       150.1       150.1       150.0    
  31    170.6       170.5       170.5       170.4       170.3       170.2       170.1       169.9       169.7       169.5    
        169.3       169.0       168.7       168.4       168.1       167.7       167.3       166.9       166.5       166.0    
        165.6       165.0       164.5       164.0       163.4       162.8       162.1       161.5       160.8       160.1    
        159.4       158.6       157.9       157.1       156.4       155.6       154.9       154.2       153.5       152.9    
        152.4       151.9       151.5       151.1       150.9       150.7       150.5       150.3       150.2       150.0    
  32    170.6       170.5       170.5       170.4       170.3       170.2       170.1       169.9       169.7       169.5    
        169.3       169.0       168.7       168.4       168.1       167.7       167.4       166.9       166.5       166.1    
        165.6       165.1       164.6       164.0       163.4       162.8       162.2       161.6       160.9       160.2    
        159.6       158.8       158.1       157.4       156.7       156.0       155.3       154.6       154.0       153.4    
        152.9       152.4       152.0       151.6       151.3       151.0       150.7       150.5       150.3       150.0    
  33    170.6       170.5       170.5       170.4       170.3       170.2       170.1       169.9       169.7       169.5    
        169.3       169.0       168.7       168.4       168.1       167.7       167.4       167.0       166.5       166.1    
        165.6       165.1       164.6       164.1       163.5       162.9       162.3       161.7       161.1       160.4    
        159.7       159.0       158.4       157.7       157.0       156.3       155.6       155.0       154.4       153.8    
        153.3       152.8       152.3       151.9       151.6       151.3       150.9       150.6       150.3       150.0    
  34    170.6       170.5       170.5       170.4       170.3       170.2       170.1       169.9       169.7       169.5    
        169.3       169.0       168.7       168.4       168.1       167.8       167.4       167.0       166.6       166.1    
        165.7       165.2       164.7       164.1       163.6       163.0       162.4       161.8       161.2       160.5    
        159.9       159.2       158.6       157.9       157.2       156.6       155.9       155.3       154.7       154.2    
        153.6       153.1       152.7       152.2       151.8       151.5       151.1       150.7       150.4       150.0    
  35    170.6       170.5       170.5       170.4       170.3       170.2       170.1       169.9       169.7       169.5    
        169.3       169.0       168.8       168.4       168.1       167.8       167.4       167.0       166.6       166.1    
        165.7       165.2       164.7       164.2       163.6       163.1       162.5       161.9       161.3       160.6    
        160.0       159.4       158.7       158.1       157.4       156.8       156.2       155.6       155.0       154.4    
        153.9       153.4       152.9       152.5       152.1       151.6       151.2       150.8       150.4       150.0    
  36    170.6       170.5       170.5       170.4       170.3       170.2       170.1       169.9       169.7       169.5    
        169.3       169.0       168.8       168.5       168.1       167.8       167.4       167.0       166.6       166.2    
        165.7       165.2       164.7       164.2       163.7       163.1       162.5       162.0       161.4       160.7    
        160.1       159.5       158.9       158.2       157.6       157.0       156.4       155.8       155.2       154.7    
        154.1       153.6       153.1       152.7       152.2       151.8       151.4       150.9       150.5       150.0    
  37    170.6       170.6       170.5       170.4       170.3       170.2       170.1       169.9       169.7       169.5    
        169.3       169.0       168.8       168.5       168.1       167.8       167.4       167.0       166.6       166.2    
        165.7       165.3       164.8       164.2       163.7       163.2       162.6       162.0       161.4       160.8    
        160.2       159.6       159.0       158.4       157.7       157.1       156.5       156.0       155.4       154.8    
        154.3       153.8       153.3       152.8       152.4       151.9       151.4       151.0       150.5       150.0    
  38    170.6       170.6       170.5       170.4       170.3       170.2       170.1       169.9       169.7       169.5    
        169.3       169.0       168.8       168.5       168.1       167.8       167.4       167.0       166.6       166.2    
        165.7       165.3       164.8       164.3       163.7       163.2       162.6       162.1       161.5       160.9    
        160.3       159.7       159.1       158.4       157.8       157.2       156.7       156.1       155.5       155.0    
        154.4       153.9       153.4       152.9       152.4       152.0       151.5       151.0       150.5       150.0    
  39    170.6       170.6       170.5       170.4       170.3       170.2       170.1       169.9       169.7       169.5    
        169.3       169.0       168.8       168.5       168.2       167.8       167.4       167.1       166.6       166.2    
        165.8       165.3       164.8       164.3       163.8       163.2       162.7       162.1       161.5       160.9    
        160.3       159.7       159.1       158.5       157.9       157.3       156.7       156.2       155.6       155.0    
        154.5       154.0       153.5       153.0       152.5       152.0       151.5       151.0       150.5       150.0    
  40    170.6       170.6       170.5       170.4       170.3       170.2       170.1       169.9       169.7       169.5    
        169.3       169.1       168.8       168.5       168.2       167.8       167.4       167.1       166.6       166.2    
        165.8       165.3       164.8       164.3       163.8       163.2       162.7       162.1       161.5       160.9    
        160.3       159.7       159.1       158.5       157.9       157.4       156.8       156.2       155.6       155.1    
        154.6       154.0       153.5       153.0       152.5       152.0       151.6       151.1       150.5       150.0    

 HEAD WILL BE SAVED ON UNIT   51 AT END OF TIME STEP   1, STRESS PERIOD    1
1
          DRAWDOWN IN LAYER   1 AT END OF TIME STEP   1 IN STRESS PERIOD    1
  ---------------------------------------------------------------------------

            1           2           3           4           5           6           7           8           9          10
           11          12          13          14          15          16          17          18          19          20
           21          22          23          24          25          26          27          28          29          30
           31          32          33          34          35          36          37          38          39          40
           41          42          43          44          45          46          47          48          49          50
 ........................................................................................................................
   1    29.36       29.38       29.43       29.50       29.59       29.70       29.84       30.00       30.18       30.38    
        30.61       30.86       31.13       31.42       31.74       32.07       32.43       32.81       33.21       33.63    
        34.07       34.53       35.01       35.50       36.02       36.54       37.08       37.64       38.20       38.77    
        39.36       39.94       40.53       41.12       41.71       42.29       42.87       43.45       44.01       44.57    
        45.12       45.66       46.19       46.72       47.24       47.77       48.31       48.85       49.41       0.000    
   2    29.36       29.38       29.43       29.50       29.59       29.70       29.84       30.00       30.18       30.38    
        30.61       30.86       31.13       31.42       31.74       32.08       32.44       32.82       33.22       33.64    
        34.08       34.54       35.02       35.51       36.03       36.55       37.10       37.65       38.22       38.79    
        39.38       39.97       40.56       41.15       41.74       42.33       42.91       43.48       44.05       44.61    
        45.15       45.69       46.22       46.75       47.27       47.79       48.32       48.86       49.42       0.000    
   3    29.36       29.38       29.43       29.50       29.59       29.70       29.84       30.00       30.18       30.39    
        30.61       30.86       31.13       31.43       31.75       32.08       32.44       32.82       33.23       33.65    
        34.09       34.55       35.03       35.53       36.05       36.58       37.12       37.68       38.25       38.83    
        39.42       40.01       40.61       41.21       41.80       42.39       42.98       43.56       44.12       44.68    
        45.23       45.76       46.29       46.81       47.32       47.84       48.36       48.89       49.43       0.000    
   4    29.36       29.39       29.43       29.50       29.59       29.71       29.84       30.00       30.19       30.39    
        30.62       30.87       31.14       31.44       31.75       32.09       32.45       32.84       33.24       33.66    
        34.11       34.57       35.06       35.56       36.08       36.61       37.17       37.73       38.31       38.89    
        39.49       40.09       40.69       41.29       41.90       42.49       43.08       43.66       44.23       44.79    
        45.34       45.87       46.39       46.90       47.40       47.90       48.41       48.92       49.45       0.000    
   5    29.37       29.39       29.44       29.50       29.60       29.71       29.85       30.01       30.19       30.40    
        30.62       30.87       31.15       31.44       31.76       32.10       32.47       32.85       33.26       33.69    
        34.13       34.60       35.09       35.60       36.12       36.66       37.22       37.79       38.37       38.97    
        39.57       40.18       40.80       41.41       42.02       42.63       43.23       43.81       44.39       44.95    
        45.49       46.01       46.53       47.02       47.51       48.00       48.48       48.97       49.48       0.000    
   6    29.37       29.39       29.44       29.51       29.60       29.71       29.85       30.01       30.20       30.40    
        30.63       30.88       31.16       31.46       31.78       32.12       32.48       32.87       33.28       33.71    
        34.16       34.63       35.13       35.64       36.17       36.72       37.29       37.87       38.46       39.07    
        39.68       40.30       40.93       41.56       42.18       42.80       43.41       44.00       44.58       45.14    
        45.68       46.20       46.71       47.19       47.66       48.12       48.57       49.04       49.51       0.000    
   7    29.37       29.40       29.44       29.51       29.60       29.72       29.86       30.02       30.20       30.41    
        30.64       30.89       31.17       31.47       31.79       32.13       32.50       32.89       33.30       33.74    
        34.20       34.67       35.17       35.69       36.23       36.79       37.36       37.95       38.56       39.18    
        39.81       40.45       41.09       41.73       42.37       43.01       43.63       44.24       44.82       45.39    
        45.93       46.44       46.93       47.39       47.84       48.27       48.69       49.12       49.55       0.000    
   8    29.38       29.40       29.45       29.52       29.61       29.72       29.86       30.02       30.21       30.42    
        30.65       30.90       31.18       31.48       31.81       32.15       32.52       32.92       33.33       33.77    
        34.23       34.72       35.22       35.75       36.30       36.86       37.45       38.06       38.68       39.31    
        39.96       40.61       41.27       41.94       42.60       43.25       43.89       44.52       45.12       45.69    
        46.23       46.73       47.21       47.65       48.06       48.45       48.84       49.21       49.60       0.000    
   9    29.38       29.41       29.45       29.52       29.61       29.73       29.87       30.03       30.22       30.43    
        30.66       30.91       31.19       31.50       31.82       32.17       32.55       32.94       33.36       33.81    
        34.27       34.76       35.28       35.81       36.37       36.95       37.55       38.17       38.80       39.46    
        40.12       40.80       41.49       42.18       42.86       43.54       44.21       44.85       45.47       46.05    
        46.59       47.09       47.54       47.95       48.33       48.68       49.01       49.33       49.66       0.000    
  10    29.39       29.41       29.46       29.53       29.62       29.74       29.88       30.04       30.23       30.44    
        30.67       30.93       31.21       31.51       31.84       32.19       32.57       32.97       33.40       33.85    
        34.32       34.82       35.34       35.88       36.45       37.04       37.65       38.29       38.94       39.62    
        40.31       41.01       41.72       42.44       43.16       43.87       44.57       45.24       45.88       46.48    
        47.02       47.51       47.95       48.33       48.66       48.95       49.22       49.48       49.73       0.000    
  11    29.39       29.42       29.46       29.53       29.63       29.74       29.88       30.05       30.23       30.45    
        30.68       30.94       31.22       31.53       31.86       32.22       32.60       33.00       33.43       33.88    
        34.36       34.87       35.40       35.95       36.53       37.13       37.76       38.42       39.09       39.79    
        40.51       41.24       41.99       42.74       43.50       44.25       44.99       45.70       46.37       46.99    
        47.54       48.02       48.43       48.77       49.05       49.28       49.47       49.65       49.82       0.000    
  12    29.40       29.42       29.47       29.54       29.63       29.75       29.89       30.05       30.24       30.46    
        30.69       30.95       31.24       31.55       31.88       32.24       32.62       33.03       33.46       33.92    
        34.41       34.92       35.46       36.02       36.61       37.23       37.88       38.55       39.25       39.97    
        40.72       41.48       42.27       43.07       43.87       44.67       45.46       46.22       46.94       47.59    
        48.16       48.64       49.02       49.31       49.52       49.67       49.77       49.85       49.92       0.000    
  13    29.40       29.43       29.47       29.54       29.64       29.76       29.90       30.06       30.25       30.47    
        30.70       30.96       31.25       31.56       31.90       32.26       32.65       33.06       33.50       33.96    
        34.45       34.97       35.52       36.09       36.70       37.33       37.99       38.68       39.40       40.15    
        40.93       41.74       42.57       43.42       44.28       45.14       46.00       46.82       47.60       48.30    
        48.90       49.38       49.73       49.96       50.09       50.13       50.12       50.09       50.04       0.000    
  14    29.41       29.43       29.48       29.55       29.64       29.76       29.90       30.07       30.26       30.48    
        30.71       30.98       31.27       31.58       31.92       32.28       32.67       33.09       33.53       34.00    
        34.50       35.02       35.58       36.16       36.78       37.43       38.10       38.82       39.56       40.34    
        41.15       42.00       42.88       43.78       44.71       45.65       46.59       47.51       48.37       49.15    
        49.79       50.28       50.59       50.74       50.76       50.68       50.53       50.36       50.17       0.000    
  15    29.41       29.44       29.48       29.55       29.65       29.77       29.91       30.08       30.27       30.48    
        30.72       30.99       31.28       31.59       31.93       32.30       32.69       33.11       33.56       34.03    
        34.54       35.07       35.63       36.23       36.86       37.52       38.21       38.94       39.71       40.52    
        41.37       42.26       43.19       44.16       45.17       46.20       47.25       48.28       49.27       50.16    
        50.88       51.39       51.65       51.69       51.56       51.31       51.00       50.67       50.33       0.000    
  16    29.42       29.44       29.49       29.56       29.65       29.77       29.92       30.08       30.28       30.49    
        30.73       31.00       31.29       31.61       31.95       32.32       32.71       33.14       33.59       34.07    
        34.58       35.12       35.69       36.29       36.93       37.60       38.31       39.06       39.85       40.69    
        41.57       42.51       43.49       44.53       45.63       46.77       47.95       49.14       50.31       51.37    
        52.23       52.78       52.97       52.85       52.51       52.05       51.53       51.01       50.49       0.000    
  17    29.42       29.44       29.49       29.56       29.66       29.78       29.92       30.09       30.28       30.50    
        30.74       31.01       31.30       31.62       31.96       32.33       32.73       33.16       33.61       34.10    
        34.61       35.15       35.73       36.34       36.99       37.67       38.40       39.17       39.98       40.84    
        41.76       42.74       43.78       44.89       46.08       47.34       48.68       50.07       51.48       52.82    
        53.93       54.59       54.65       54.26       53.61       52.86       52.10       51.36       50.66       0.000    
  18    29.43       29.45       29.50       29.57       29.66       29.78       29.93       30.10       30.29       30.51    
        30.75       31.02       31.31       31.63       31.98       32.35       32.75       33.18       33.63       34.12    
        34.64       35.19       35.77       36.39       37.04       37.74       38.47       39.25       40.09       40.97    
        41.92       42.93       44.03       45.20       46.48       47.87       49.39       51.04       52.79       54.56    
        56.13       57.05       56.84       55.96       54.85       53.73       52.68       51.72       50.83       0.000    
  19    29.43       29.45       29.50       29.57       29.67       29.79       29.93       30.10       30.29       30.51    
        30.76       31.02       31.32       31.64       31.99       32.36       32.76       33.19       33.65       34.14    
        34.66       35.21       35.80       36.42       37.08       37.78       38.53       39.32       40.17       41.07    
        42.04       43.09       44.22       45.46       46.81       48.32       50.02       51.94       54.13       56.58    
        59.07       60.75       59.77       57.96       56.15       54.57       53.21       52.03       50.97       0.000    
  20    29.43       29.46       29.50       29.58       29.67       29.79       29.94       30.11       30.30       30.52    
        30.76       31.03       31.32       31.64       31.99       32.37       32.77       33.20       33.66       34.15    
        34.67       35.23       35.82       36.44       37.11       37.81       38.56       39.36       40.22       41.14    
        42.12       43.19       44.35       45.62       47.04       48.63       50.47       52.64       55.30       58.66    
        62.95       67.37       63.66       60.03       57.29       55.22       53.59       52.25       51.07       0.000    
  21    29.43       29.46       29.51       29.58       29.67       29.79       29.94       30.11       30.30       30.52    
        30.76       31.03       31.33       31.65       32.00       32.37       32.77       33.21       33.67       34.16    
        34.68       35.24       35.83       36.45       37.12       37.83       38.58       39.38       40.24       41.16    
        42.15       43.22       44.39       45.68       47.12       48.75       50.64       52.93       55.84       59.97    
        66.98       83.47       67.71       61.35       57.83       55.49       53.74       52.33       51.11       0.000    
  22    29.44       29.46       29.51       29.58       29.68       29.80       29.94       30.11       30.30       30.52    
        30.77       31.04       31.33       31.65       32.00       32.37       32.78       33.21       33.67       34.16    
        34.68       35.24       35.83       36.45       37.12       37.82       38.58       39.38       40.23       41.15    
        42.13       43.20       44.36       45.63       47.05       48.64       50.48       52.65       55.31       58.67    
        62.96       67.38       63.67       60.04       57.30       55.23       53.60       52.25       51.07       0.000    
  23    29.44       29.46       29.51       29.58       29.68       29.80       29.94       30.11       30.31       30.52    
        30.77       31.04       31.33       31.65       32.00       32.37       32.77       33.21       33.66       34.15    
        34.67       35.23       35.82       36.44       37.10       37.80       38.55       39.34       40.19       41.09    
        42.06       43.11       44.24       45.48       46.84       48.35       50.04       51.96       54.15       56.60    
        59.09       60.77       59.79       57.97       56.16       54.58       53.21       52.03       50.98       0.000    
  24    29.44       29.46       29.51       29.58       29.68       29.80       29.94       30.11       30.31       30.52    
        30.77       31.03       31.33       31.65       32.00       32.37       32.77       33.20       33.66       34.14    
        34.66       35.21       35.80       36.42       37.07       37.77       38.50       39.29       40.12       41.01    
        41.95       42.97       44.06       45.24       46.52       47.91       49.42       51.07       52.82       54.59    
        56.16       57.08       56.86       55.98       54.87       53.74       52.69       51.72       50.83       0.000    
  25    29.44       29.46       29.51       29.58       29.68       29.80       29.94       30.11       30.30       30.52    
        30.76       31.03       31.33       31.64       31.99       32.36       32.76       33.19       33.64       34.13    
        34.64       35.19       35.77       36.38       37.03       37.72       38.44       39.21       40.03       40.89    
        41.81       42.78       43.83       44.94       46.12       47.39       48.72       50.12       51.53       52.86    
        53.96       54.62       54.68       54.28       53.63       52.88       52.12       51.37       50.67       0.000    
  26    29.44       29.46       29.51       29.58       29.68       29.80       29.94       30.11       30.30       30.52    
        30.76       31.03       31.32       31.64       31.98       32.35       32.75       33.17       33.63       34.11    
        34.62       35.16       35.73       36.34       36.98       37.65       38.36       39.12       39.91       40.75    
        41.63       42.57       43.55       44.59       45.69       46.83       48.01       49.20       50.36       51.42    
        52.28       52.83       53.01       52.88       52.54       52.07       51.55       51.02       50.50       0.000    
  27    29.44       29.46       29.51       29.58       29.68       29.80       29.94       30.11       30.30       30.52    
        30.76       31.02       31.31       31.63       31.97       32.34       32.74       33.16       33.61       34.08    
        34.59       35.13       35.69       36.29       36.92       37.58       38.28       39.01       39.78       40.59    
        41.44       42.33       43.26       44.23       45.24       46.27       47.32       48.35       49.33       50.22    
        50.94       51.44       51.70       51.73       51.60       51.34       51.03       50.68       50.33       0.000    
  28    29.44       29.46       29.51       29.58       29.68       29.80       29.94       30.11       30.30       30.51    
        30.75       31.02       31.31       31.62       31.96       32.33       32.72       33.14       33.59       34.06    
        34.56       35.09       35.64       36.23       36.85       37.50       38.18       38.89       39.64       40.42    
        41.24       42.08       42.96       43.87       44.80       45.74       46.68       47.59       48.45       49.22    
        49.86       50.34       50.65       50.79       50.80       50.71       50.56       50.38       50.18       0.000    
  29    29.44       29.46       29.51       29.58       29.67       29.79       29.94       30.10       30.29       30.51    
        30.75       31.01       31.30       31.61       31.95       32.31       32.70       33.12       33.56       34.03    
        34.52       35.05       35.60       36.17       36.78       37.41       38.08       38.77       39.50       40.25    
        41.03       41.84       42.67       43.51       44.38       45.24       46.09       46.92       47.69       48.38    
        48.98       49.45       49.80       50.02       50.14       50.17       50.16       50.11       50.05       0.000    
  30    29.44       29.46       29.51       29.58       29.67       29.79       29.93       30.10       30.29       30.50    
        30.74       31.00       31.29       31.60       31.94       32.30       32.69       33.10       33.53       34.00    
        34.49       35.00       35.54       36.11       36.71       37.33       37.98       38.65       39.35       40.08    
        40.82       41.59       42.38       43.18       43.98       44.79       45.57       46.33       47.04       47.68    
        48.25       48.72       49.10       49.38       49.58       49.72       49.81       49.87       49.93       0.000    
  31    29.43       29.46       29.51       29.58       29.67       29.79       29.93       30.10       30.28       30.50    
        30.74       31.00       31.28       31.59       31.93       32.28       32.67       33.08       33.51       33.97    
        34.45       34.96       35.49       36.05       36.63       37.24       37.87       38.53       39.21       39.91    
        40.63       41.36       42.11       42.87       43.63       44.38       45.11       45.82       46.48       47.09    
        47.64       48.12       48.52       48.85       49.12       49.33       49.51       49.68       49.83       0.000    
  32    29.43       29.46       29.50       29.57       29.67       29.79       29.93       30.09       30.28       30.49    
        30.73       30.99       31.27       31.58       31.91       32.27       32.65       33.05       33.48       33.94    
        34.41       34.91       35.44       35.99       36.56       37.16       37.78       38.41       39.07       39.75    
        40.44       41.15       41.87       42.59       43.31       44.02       44.71       45.38       46.01       46.60    
        47.14       47.62       48.04       48.41       48.73       49.01       49.27       49.51       49.75       0.000    
  33    29.43       29.45       29.50       29.57       29.67       29.78       29.92       30.09       30.28       30.49    
        30.72       30.98       31.26       31.57       31.90       32.25       32.63       33.03       33.46       33.91    
        34.38       34.87       35.39       35.93       36.50       37.08       37.68       38.31       38.95       39.61    
        40.28       40.96       41.64       42.33       43.02       43.70       44.36       45.00       45.61       46.19    
        46.72       47.21       47.65       48.05       48.42       48.75       49.06       49.37       49.68       0.000    
  34    29.43       29.45       29.50       29.57       29.66       29.78       29.92       30.08       30.27       30.48    
        30.72       30.97       31.26       31.56       31.89       32.24       32.61       33.01       33.43       33.88    
        34.35       34.84       35.35       35.88       36.43       37.01       37.60       38.21       38.83       39.47    
        40.12       40.78       41.45       42.11       42.78       43.43       44.07       44.69       45.28       45.85    
        46.38       46.87       47.33       47.76       48.16       48.53       48.90       49.25       49.62       0.000    
  35    29.43       29.45       29.50       29.57       29.66       29.78       29.92       30.08       30.27       30.48    
        30.71       30.97       31.25       31.55       31.88       32.23       32.60       32.99       33.41       33.85    
        34.32       34.80       35.31       35.83       36.38       36.94       37.52       38.12       38.73       39.36    
        39.99       40.63       41.28       41.93       42.57       43.20       43.82       44.43       45.01       45.56    
        46.09       46.60       47.07       47.52       47.94       48.36       48.76       49.16       49.57       0.000    
  36    29.43       29.45       29.50       29.57       29.66       29.78       29.92       30.08       30.26       30.47    
        30.71       30.96       31.24       31.54       31.87       32.22       32.59       32.98       33.39       33.83    
        34.29       34.77       35.27       35.79       36.33       36.89       37.46       38.05       38.65       39.26    
        39.88       40.51       41.14       41.77       42.40       43.01       43.62       44.21       44.79       45.34    
        45.87       46.38       46.86       47.33       47.78       48.22       48.65       49.09       49.53       0.000    
  37    29.43       29.45       29.50       29.57       29.66       29.77       29.91       30.08       30.26       30.47    
        30.70       30.96       31.24       31.54       31.86       32.21       32.58       32.97       33.38       33.81    
        34.27       34.75       35.24       35.76       36.29       36.84       37.41       37.99       38.58       39.18    
        39.79       40.41       41.03       41.65       42.26       42.87       43.46       44.05       44.62       45.17    
        45.70       46.21       46.70       47.18       47.65       48.11       48.57       49.03       49.50       0.000    
  38    29.43       29.45       29.49       29.56       29.66       29.77       29.91       30.07       30.26       30.47    
        30.70       30.95       31.23       31.53       31.85       32.20       32.57       32.96       33.37       33.80    
        34.25       34.73       35.22       35.73       36.26       36.81       37.37       37.94       38.53       39.12    
        39.72       40.33       40.94       41.55       42.16       42.76       43.35       43.92       44.49       45.04    
        45.57       46.09       46.59       47.08       47.56       48.03       48.51       48.99       49.48       0.000    
  39    29.42       29.45       29.49       29.56       29.66       29.77       29.91       30.07       30.26       30.47    
        30.70       30.95       31.23       31.53       31.85       32.19       32.56       32.95       33.36       33.79    
        34.24       34.71       35.20       35.71       36.24       36.78       37.34       37.91       38.49       39.08    
        39.68       40.28       40.89       41.49       42.09       42.68       43.27       43.84       44.41       44.95    
        45.49       46.01       46.51       47.01       47.49       47.98       48.47       48.96       49.47       0.000    
  40    29.42       29.45       29.49       29.56       29.66       29.77       29.91       30.07       30.26       30.46    
        30.70       30.95       31.23       31.53       31.85       32.19       32.56       32.95       33.36       33.79    
        34.24       34.71       35.20       35.70       36.23       36.77       37.33       37.89       38.47       39.06    
        39.66       40.26       40.86       41.46       42.06       42.65       43.23       43.80       44.37       44.91    
        45.45       45.97       46.47       46.97       47.46       47.95       48.45       48.95       49.46       0.000    

 DRAWDOWN WILL BE SAVED ON UNIT   52 AT END OF TIME STEP   1, STRESS PERIOD    1
1
  VOLUMETRIC BUDGET FOR ENTIRE MODEL AT END OF TIME STEP  1 IN STRESS PERIOD   1
  ------------------------------------------------------------------------------

     CUMULATIVE VOLUMES      L**3       RATES FOR THIS TIME STEP      L**3/T
     ------------------                 ------------------------

           IN:                                      IN:
           ---                                      ---
             STORAGE =           0.0000               STORAGE =           0.0000
       CONSTANT HEAD =        1540.9130         CONSTANT HEAD =        1540.9130
               WELLS =           0.0000                 WELLS =           0.0000
            RECHARGE =        7839.9995              RECHARGE =        7839.9995

            TOTAL IN =        9380.9121              TOTAL IN =        9380.9121

          OUT:                                     OUT:
          ----                                     ----
             STORAGE =           0.0000               STORAGE =           0.0000
       CONSTANT HEAD =        1380.9125         CONSTANT HEAD =        1380.9125
               WELLS =        8000.0000                 WELLS =        8000.0000
            RECHARGE =           0.0000              RECHARGE =           0.0000

           TOTAL OUT =        9380.9121             TOTAL OUT =        9380.9121

            IN - OUT =           0.0000              IN - OUT =           0.0000

 PERCENT DISCREPANCY =           0.00     PERCENT DISCREPANCY =           0.00






          TIME SUMMARY AT END OF TIME STEP   1 IN STRESS PERIOD    1
                    SECONDS     MINUTES      HOURS       DAYS        YEARS
                    -----------------------------------------------------------
   TIME STEP LENGTH  86400.      1440.0      24.000      1.0000     2.73785E-03
 STRESS PERIOD TIME  86400.      1440.0      24.000      1.0000     2.73785E-03
         TOTAL TIME  86400.      1440.0      24.000      1.0000     2.73785E-03
1
